data_afw_v1-4c_In_1_Ch_1-1B_1TrU
_audit_creation_date              2023-09-26
_audit_creation_method            'newmof'
_symmetry_space_group_name_H-M    'P1'
_symmetry_Int_Tables_number       1
_symmetry_cell_setting            triclinic
loop_
_symmetry_equiv_pos_as_xyz
  x,y,z
_cell_length_a                    39.877232683256075
_cell_length_b                    39.895354484877025
_cell_length_c                    32.496632760263616
_cell_angle_alpha                 90.19088048162948
_cell_angle_beta                  89.90756668737762
_cell_angle_gamma                 119.94924360881835
loop_
_atom_site_label
_atom_site_type_symbol
_atom_site_fract_x
_atom_site_fract_y
_atom_site_fract_z
_atom_site_charge
In1       In    0.3323765121    0.8659654861    0.6646216048          1.3687
C2         C    0.2763028698    0.7956640321    0.6718699355          0.1093
O3         O    0.3687175010    0.8463007457    0.6348260569         -1.2752
O4         O    0.3835297360    0.8625337460    0.6943965082         -1.1843
C5         C    0.3583045694    0.9222044443    0.6092862225           0.036
O6         O    0.3275956768    0.8910837504    0.6022568801         -1.1328
C7         C    0.3085738033    0.8957460313    0.7224087925           0.083
O8         O    0.2826998180    0.8161233289    0.6390152724         -1.2514
O9         O    0.3363913962    0.8938465264    0.7327489609         -1.1524
O10        O    0.2959882750    0.8083850778    0.7012717430         -1.2158
C11        C    0.3900187576    0.8527854923    0.6632350496          0.1848
O12        O    0.3780210636    0.9287728564    0.6433664011         -1.2347
O13        O    0.2943707777    0.8878273517    0.6857366552         -1.2676
In14      In    0.2024302100    0.9958909224    0.9982991968          1.3687
C15        C    0.1321284100    0.9397072120    0.9910994676          0.1093
O16        O    0.1827516318    0.0321203612    0.0283422846         -1.2752
O17        O    0.1986967875    0.0469104362    0.9687702479         -1.1843
C18        C    0.2589560291    0.0219801869    0.0535093539           0.036
O19        O    0.2279004971    0.9912416194    0.0605334632         -1.1328
C20        C    0.2320770909    0.9721859097    0.9402782130           0.083
O21        O    0.1527600461    0.9461779614    0.0238946322         -1.2514
O22        O    0.2300404233    0.9999348784    0.9300718220         -1.1524
O23        O    0.1446786065    0.9593715501    0.9617324931         -1.2158
C24        C    0.1890527224    0.0533788413    0.0000021178          0.1848
O25        O    0.2653197069    0.0416532549    0.0194906108         -1.2347
O26        O    0.2243554084    0.9580130345    0.9769195098         -1.2676
In27      In    0.4643646211    0.1284841179    0.3310622792          1.3687
C28        C    0.4785876712    0.1987983583    0.3237574803          0.1093
O29        O    0.5202465450    0.1481258972    0.3609044938         -1.2752
O30        O    0.5190240581    0.1318643499    0.3013493777         -1.1843
C31        C    0.4339046227    0.0722687286    0.3864200517           0.036
O32        O    0.4342834601    0.1034035519    0.3934173169         -1.1328
C33        C    0.4109979816    0.0987098646    0.2732419460           0.083
O34        O    0.4644311165    0.1783549438    0.3566166309         -1.2514
O35        O    0.4407366481    0.1005836580    0.2629354944         -1.1524
O36        O    0.4856485259    0.1860556958    0.2943773769         -1.2158
C37        C    0.5351513532    0.1416163604    0.3325201102          0.1848
O38        O    0.4471599843    0.0656745089    0.3523625709         -1.2347
O39        O    0.4045949507    0.1066507221    0.3098982146         -1.2676
In40      In    0.5376842554    0.6658431668    0.6649215470          1.3687
C41        C    0.5234685972    0.7219930293    0.6724156769          0.1093
O42        O    0.4817973854    0.6296124849    0.6350634906         -1.2752
O43        O    0.4830265036    0.6147804213    0.6945724038         -1.1843
C44        C    0.5681324779    0.6398270669    0.6094373676           0.036
O45        O    0.5677558008    0.6705608336    0.6025317034         -1.1328
C46        C    0.5910585488    0.6895294875    0.7227245579           0.083
O47        O    0.5376192695    0.7155601261    0.6395145593         -1.2514
O48        O    0.5613199948    0.6617616861    0.7329973254         -1.1524
O49        O    0.5164101510    0.7023069735    0.7017488947         -1.2158
C50        C    0.4668950829    0.6083284028    0.6634090680          0.1848
O51        O    0.5548804788    0.6201244261    0.6434579995         -1.2347
O52        O    0.5974576498    0.7037312832    0.6861000587         -1.2676
In53      In    0.6688175502    0.5332798503    0.3307725016          1.3687
C54        C    0.7249783896    0.5190649949    0.3232290979          0.1093
O55        O    0.6326910973    0.4775146979    0.3606703956         -1.2752
O56        O    0.6176321191    0.4785417676    0.3011749930         -1.1843
C57        C    0.6429792301    0.5638852484    0.3862763822           0.036
O58        O    0.6737569883    0.5635409249    0.3931541204         -1.1328
C59        C    0.6922906440    0.5864377349    0.2729414575           0.083
O60        O    0.7186575497    0.5333139559    0.3561342048         -1.2514
O61        O    0.6644775221    0.5566748594    0.2626976855         -1.1524
O62        O    0.7051753176    0.5119078665    0.2939147512         -1.2158
C63        C    0.6112950323    0.4625212561    0.3323461185          0.1848
O64        O    0.6231443156    0.5505228166    0.3522754229         -1.2347
O65        O    0.7066329873    0.5929583767    0.3095521345         -1.2676
In66      In    0.7971659256    0.7947891362    0.9983044169          1.3687
C67        C    0.8112136415    0.8650863771    0.9915369757          0.1093
O68        O    0.8530745898    0.8143911062    0.0280675680         -1.2752
O69        O    0.8518869211    0.7984812921    0.9683820056         -1.1843
C70        C    0.7668268284    0.7382581373    0.0533139599           0.036
O71        O    0.7671213348    0.7693119695    0.0605746414         -1.1328
C72        C    0.7438000168    0.7652318834    0.9404670629           0.083
O73        O    0.7970986074    0.8444486067    0.0242823929         -1.2514
O74        O    0.7735728996    0.7672426073    0.9300466420         -1.1524
O75        O    0.8183152065    0.8525448633    0.9620186677         -1.2158
C76        C    0.8680138324    0.8080901717    0.9995636646          0.1848
O77        O    0.7801137998    0.7318997810    0.0191437396         -1.2347
O78        O    0.7373714338    0.7729393848    0.9772173743         -1.2676
In79      In    0.1326151340    0.4610914698    0.6641028602          1.3687
C80        C    0.2029777617    0.4753506930    0.6715524055          0.1093
O81        O    0.1522167210    0.5168936853    0.6343136489         -1.2752
O82        O    0.1359989138    0.5157651099    0.6938360083         -1.1843
C83        C    0.0763249025    0.4305318792    0.6086245285           0.036
O84        O    0.1074746163    0.4309134940    0.6016898747         -1.1328
C85        C    0.1028984389    0.4078453325    0.7218505483           0.083
O86        O    0.1824969704    0.4611384944    0.6386486154         -1.2514
O87        O    0.1047688372    0.4375818213    0.7321680648         -1.1524
O88        O    0.1902497916    0.4824503301    0.7009087391         -1.2158
C89        C    0.1457215457    0.5318331565    0.6626886964          0.1848
O90        O    0.0697509466    0.4438326078    0.6426721200         -1.2347
O91        O    0.1108143405    0.4013884487    0.6852085390         -1.2676
In92      In    0.8694917888    0.3285992437    0.3302513520          1.3687
C93        C    0.7991832642    0.2724634078    0.3228997207          0.1093
O94        O    0.8497944609    0.3648703883    0.3601616072         -1.2752
O95        O    0.8658888124    0.3796525565    0.3006204409         -1.1843
C96        C    0.9258838931    0.3546378187    0.3856168433           0.036
O97        O    0.8947944075    0.3239167672    0.3925841458         -1.1328
C98        C    0.8992324310    0.3048491552    0.2723768042           0.083
O99        O    0.8197325911    0.2789135662    0.3557568918         -1.2514
O100       O    0.8972528142    0.3326163416    0.2621149377         -1.1524
O101       O    0.8118184357    0.2921255240    0.2935431022         -1.2158
C102       C    0.8561834850    0.3861345617    0.3318068408          0.1848
O103       O    0.9323471445    0.3743157839    0.3515864769         -1.2347
O104       O    0.8914119982    0.2906759336    0.3090153423         -1.2676
In105     In    0.9995183605    0.1991696997    0.9960263650          1.3687
C106       C    0.9432664649    0.1289108401    0.0028680232          0.1093
O107       O    0.0357502547    0.1794912353    0.9660026766         -1.2752
O108       O    0.0505142942    0.1953575508    0.0256604005         -1.1843
C109       C    0.0256960239    0.2557326016    0.9410604054           0.036
O110       O    0.9949342757    0.2247126193    0.9338645430         -1.1328
C111       C    0.9758008844    0.2287743837    0.0540890937           0.083
O112       O    0.9497780623    0.1495726707    0.9701550187         -1.2514
O113       O    0.0035409914    0.2267013294    0.0643526428         -1.1524
O114       O    0.9629221595    0.1414109552    0.0323209628         -1.2158
C115       C    0.0569951360    0.1857419166    0.9944121401          0.1848
O116       O    0.0453517057    0.2620410694    0.9751449804         -1.2347
O117       O    0.9616459261    0.2211058013    0.0173902064         -1.2676
C322       C    0.9375281862    0.2667867827    0.1632626172          0.3305
C323       C    0.9702576754    0.2571269251    0.1671672190          0.3305
C324       C    0.9836086429    0.2438624006    0.1290616750          0.3305
C325       C    0.9107954147    0.2933607249    0.2394120892          0.3305
C326       C    0.9315006064    0.2499116630    0.0831517001          0.3305
C327       C    0.9181457363    0.2631706830    0.1212584906          0.3305
C328       C    0.9241734185    0.2800695170    0.2013503176          0.3305
C329       C    0.9642379007    0.2402628141    0.0870538087          0.3305
H330       H    0.9846039596    0.2597837134    0.1982556860          0.3305
H331       H    0.0078355350    0.2367022164    0.1319402485          0.3305
H332       H    0.9171578731    0.2472395556    0.0520630024          0.3305
H333       H    0.8939071365    0.2703143541    0.1183836566          0.3305
C310       C    0.0010950540    0.3926192719    0.4971286474          0.3305
C311       C    0.9660698896    0.3989141621    0.4946368328          0.3305
C312       C    0.9400992864    0.3857929666    0.4561206861          0.3305
C313       C    0.0530615419    0.4187960440    0.5741398610          0.3305
C314       C    0.9841791113    0.3600891293    0.4225882096          0.3305
C315       C    0.0101530612    0.3732155076    0.4611017984          0.3305
C316       C    0.0270686061    0.4057170952    0.5356420718          0.3305
C317       C    0.9491472536    0.3663736539    0.4201015109          0.3305
H318       H    0.9593612880    0.4132899654    0.5212889427          0.3305
H319       H    0.9141683288    0.3904531895    0.4542607026          0.3305
H320       H    0.9908810532    0.3457242644    0.3959262662          0.3305
H321       H    0.0360940587    0.3685708330    0.4629541080          0.3305
C298       C    0.0643342245    0.3318215397    0.8314803311          0.3305
C299       C    0.0943176356    0.3337526717    0.8626229647          0.3305
C300       C    0.0808868410    0.3073167377    0.9006859047          0.3305
C301       C    0.0911158633    0.3846299998    0.7553061948          0.3305
C302       C    0.0074943235    0.2770249357    0.8764684926          0.3305
C303       C    0.0209246858    0.3034649365    0.8384087362          0.3305
C304       C    0.0777441890    0.3582359559    0.7934009147          0.3305
C305       C    0.0374785994    0.2789479342    0.9076047589          0.3305
H306       H    0.1264525167    0.3547487526    0.8575177432          0.3305
H307       H    0.1030755318    0.3087413102    0.9237536322          0.3305
H308       H    0.9753663447    0.2560348619    0.8815934929          0.3305
H309       H    0.9987346978    0.3020525644    0.8153505595          0.3305
C286       C    0.8772462367    0.9969996476    0.9971533741          0.3305
C287       C    0.9094424918    0.0203763163    0.9656751094          0.3305
C288       C    0.9317192741    0.0648951329    0.9676122938          0.3305
C289       C    0.8326733034    0.9079600063    0.9933783634          0.3305
C290       C    0.8896027611    0.0626608198    0.0324973776          0.3305
C291       C    0.8673220853    0.0181421420    0.0305564320          0.3305
C292       C    0.8549687020    0.9524801382    0.9952469480          0.3305
C293       C    0.9218068030    0.0860372109    0.0010266354          0.3305
H294       H    0.9167893562    0.0047409322    0.9409329868          0.3305
H295       H    0.9555544868    0.0822136424    0.9443090446          0.3305
H296       H    0.8822602202    0.0783081870    0.0572225733          0.3305
H297       H    0.8434751924    0.0008240490    0.0538483975          0.3305
C274       C    0.7295925247    0.6623375984    0.1631200869          0.3305
C275       C    0.7723519202    0.6832696514    0.1497763096          0.3305
C276       C    0.7852706235    0.7096266797    0.1116524941          0.3305
C277       C    0.7036810999    0.6096385952    0.2393784658          0.3305
C278       C    0.7126749229    0.6941161893    0.1002136216          0.3305
C279       C    0.6997551925    0.6677546436    0.1383338834          0.3305
C280       C    0.7166552472    0.6359897041    0.2012507960          0.3305
C281       C    0.7554363724    0.7150572769    0.0868769515          0.3305
H282       H    0.7944470134    0.6792574423    0.1681029432          0.3305
H283       H    0.8169243601    0.7251249074    0.1017590487          0.3305
H284       H    0.6905921474    0.6981284569    0.0818718926          0.3305
H285       H    0.6680983747    0.6522428638    0.1482166678          0.3305
C262       C    0.7905409432    0.4525603765    0.3275087276          0.3305
C263       C    0.7697663176    0.4100749111    0.3416095889          0.3305
C264       C    0.7919271691    0.3876657181    0.3430576876          0.3305
C265       C    0.7463024979    0.4974604761    0.3246231956          0.3305
C266       C    0.8556308919    0.4502210855    0.3163002513          0.3305
C267       C    0.8334684851    0.4726285483    0.3148463372          0.3305
C268       C    0.7684040563    0.4749933207    0.3260700637          0.3305
C269       C    0.8348593767    0.4077390805    0.3304127431          0.3305
H270       H    0.7379865555    0.3952016389    0.3509698762          0.3305
H271       H    0.7765557562    0.3562087851    0.3534897842          0.3305
H272       H    0.8874034825    0.4650756337    0.3069327834          0.3305
H273       H    0.8488352323    0.5040802906    0.3043967948          0.3305
C250       C    0.6055189912    0.6018133970    0.4978623427          0.3305
C251       C    0.5961203515    0.5595312792    0.4937608481          0.3305
C252       C    0.6090657137    0.5464372632    0.4552091086          0.3341
C253       C    0.5796993980    0.6280909137    0.5749497618          0.3305
C254       C    0.6408009455    0.6179007889    0.4248599549          0.3305
C255       C    0.6278505811    0.6309934398    0.4634089305          0.3305
C256       C    0.5925982664    0.6149328228    0.5364129319          0.3305
C257       C    0.6314123101    0.5756214015    0.4207639879          0.3305
H258       H    0.5795771189    0.5379162322    0.5192473585          0.3305
H259       H    0.6021082239    0.5151343543    0.4521574257          0.3305
H260       H    0.6573326360    0.6394988611    0.3993627043          0.3305
H261       H    0.6347930645    0.6622922532    0.4664523219          0.3305
C238       C    0.6674436853    0.7273507921    0.8315831996          0.3305
C239       C    0.6773098147    0.6990100244    0.8530720171          0.3305
C240       C    0.7039531462    0.7122358486    0.8910646487          0.3305
C241       C    0.6141334056    0.7009659491    0.7556192078          0.3305
C242       C    0.7108682526    0.7821396871    0.8860762751          0.3305
C243       C    0.6842295320    0.7689156118    0.8480799833          0.3305
C244       C    0.6407888303    0.7141408007    0.7936003886          0.3305
C245       C    0.7207251600    0.7537954218    0.9075724130          0.3305
H246       H    0.6649049425    0.6682445506    0.8408632923          0.3305
H247       H    0.7112696304    0.6912642865    0.9069797738          0.3305
H248       H    0.7232880944    0.8129013717    0.8982881381          0.3305
H249       H    0.6769268806    0.7898924204    0.8321538776          0.3305
C226       C    0.3349380056    0.5418052696    0.6675052046          0.3305
C227       C    0.3128739558    0.4972650763    0.6680779970          0.3305
C228       C    0.2683221164    0.4748371767    0.6694435006          0.3305
C229       C    0.4240385555    0.5867346596    0.6647314335          0.3305
C230       C    0.2678986748    0.5414848046    0.6696695514          0.3305
C231       C    0.3124506821    0.5639127916    0.6683101997          0.3305
C232       C    0.3794888203    0.5642526942    0.6661213251          0.3305
C233       C    0.2458342890    0.4969444362    0.6702300400          0.3305
H234       H    0.3295059187    0.4808867819    0.6674993917          0.3305
H235       H    0.2519755002    0.4418611508    0.6698740948          0.3305
H236       H    0.2512557393    0.5578473818    0.6702607762          0.3305
H237       H    0.3287978022    0.5968890800    0.6678980613          0.3305
C214       C    0.6671673170    0.2070781483    0.3277260656          0.3305
C215       C    0.6893432951    0.2508806595    0.3192495513          0.3305
C216       C    0.7338875029    0.2729344457    0.3176220424          0.3305
C217       C    0.5780791973    0.1628902346    0.3309559713          0.3305
C218       C    0.7340798413    0.2073891269    0.3329524590          0.3305
C219       C    0.6895358331    0.1853363928    0.3345860104          0.3305
C220       C    0.6226229619    0.1850017453    0.3293400297          0.3305
C221       C    0.7562554201    0.2511895337    0.3244638596          0.3305
H222       H    0.6728003050    0.2669910952    0.3141861168          0.3305
H223       H    0.7503173333    0.3053654547    0.3113532415          0.3305
H224       H    0.7506345724    0.1912964243    0.3380252260          0.3305
H225       H    0.6731066016    0.1529085403    0.3408729389          0.3305
C202       C    0.5449538556    0.3306616692    0.3280042805          0.3305
C203       C    0.5266950875    0.3094680138    0.2873530813          0.3305
C204       C    0.5042824130    0.2649339019    0.2859288260          0.3305
C205       C    0.5897600954    0.4197259211    0.3309524069          0.3305
C206       C    0.5183911568    0.2627873720    0.3657995778          0.3305
C207       C    0.5408087216    0.3073214954    0.3672224266          0.3305
C208       C    0.5673558920    0.3751947087    0.3294566942          0.3305
C209       C    0.5001226081    0.2415936933    0.3251511918          0.3305
H210       H    0.5297682208    0.3267310318    0.2583103283          0.3305
H211       H    0.4907646478    0.2492313993    0.2558370134          0.3305
H212       H    0.5153199316    0.2455133362    0.3948269697          0.3305
H213       H    0.5543411576    0.3230240329    0.3973100193          0.3305
C190       C    0.0000710849    0.8739328932    0.9953053016          0.3305
C191       C    0.9777718654    0.8962138410    0.9944455379          0.3305
C192       C    0.9332214469    0.8739931738    0.9958834395          0.3305
C193       C    0.0891717243    0.9183004730    0.9924761195          0.3305
C194       C    0.9332693874    0.8072153699    0.9990344820          0.3305
C195       C    0.9778196307    0.8294357406    0.9975904332          0.3305
C196       C    0.0446216491    0.8961342286    0.9938867991          0.3305
C197       C    0.9109705181    0.8294969107    0.9981870126          0.3305
H198       H    0.9942282439    0.9291506895    0.9927373156          0.3305
H199       H    0.9167004160    0.8904776903    0.9952413801          0.3305
H200       H    0.9168012786    0.7742824425    0.0007302948          0.3305
H201       H    0.9943401363    0.8129503345    0.9982140512          0.3305
C178       C    0.1230594839    0.1195946695    0.9971822955          0.3305
C179       C    0.1453532890    0.1641334781    0.9964886384          0.3305
C180       C    0.1230671008    0.1864312059    0.9955554822          0.3305
C181       C    0.1675557183    0.0749255744    0.9990921529          0.3305
C182       C    0.0561983942    0.1196561716    0.9960034557          0.3305
C183       C    0.0784846121    0.0973583421    0.9969304586          0.3305
C184       C    0.1453253340    0.0972774197    0.9981340373          0.3305
C185       C    0.0784921401    0.1641951835    0.9953221050          0.3305
H186       H    0.1783485495    0.1806070501    0.9966578474          0.3305
H187       H    0.1395614385    0.2194061488    0.9950355688          0.3305
H188       H    0.0232077044    0.1031982746    0.9958216321          0.3305
H189       H    0.0619903633    0.0643830943    0.9974319124          0.3305
C166       C    0.3350061459    0.0603344947    0.1633519994          0.3305
C167       C    0.3598959063    0.0418206158    0.1733631969          0.3305
C168       C    0.3862964108    0.0551597985    0.2115474928          0.3305
C169       C    0.2821494827    0.0336850236    0.0870287714          0.3305
C170       C    0.3629234094    0.1055269603    0.2297045654          0.3305
C171       C    0.3365272257    0.0921918043    0.1915168866          0.3305
C172       C    0.3085859033    0.0469984535    0.1251836344          0.3305
C173       C    0.3878045280    0.0870050280    0.2397225285          0.3305
H174       H    0.3587926299    0.0182491661    0.1525158977          0.3305
H175       H    0.4047329805    0.0414643940    0.2189672518          0.3305
H176       H    0.3640456334    0.1291021864    0.2505520757          0.3305
H177       H    0.3181036187    0.1058992890    0.1840869792          0.3305
C154       C    0.2109923769    0.6637489985    0.6672362573          0.3305
C155       C    0.2226144475    0.6871683185    0.6270012554          0.3305
C156       C    0.2446617542    0.7316982700    0.6285755022          0.3305
C157       C    0.1669323538    0.5746881828    0.6641800390          0.3305
C158       C    0.2434599308    0.7293896265    0.7106136036          0.3305
C159       C    0.2214075941    0.6848596454    0.7090393612          0.3305
C160       C    0.1889599951    0.6192188371    0.6656866123          0.3305
C161       C    0.2550920616    0.7528090057    0.6703785928          0.3305
H162       H    0.2148982184    0.6715560583    0.5960496536          0.3305
H163       H    0.2532667878    0.7490481851    0.5987941805          0.3305
H164       H    0.2511719099    0.7450135471    0.7415531014          0.3305
H165       H    0.2127874701    0.6675096416    0.7388206961          0.3305
C142       C    0.4567730403    0.7874205859    0.6678581191          0.3305
C143       C    0.5005205121    0.8093538789    0.6768990193          0.3305
C144       C    0.5230100126    0.7872763070    0.6784334053          0.3305
C145       C    0.4117293898    0.8315071823    0.6647286237          0.3305
C146       C    0.4580082929    0.7213362361    0.6618932525          0.3305
C147       C    0.4355176922    0.7434129030    0.6603648913          0.3305
C148       C    0.4342675468    0.8094809043    0.6663007119          0.3305
C149       C    0.5017579649    0.7432713394    0.6709221028          0.3305
H150       H    0.5162650817    0.8419267017    0.6824643915          0.3305
H151       H    0.5553982756    0.8035029297    0.6851320036          0.3305
H152       H    0.4422771795    0.6887660260    0.6563428465          0.3305
H153       H    0.4031261288    0.7271835649    0.6536843679          0.3305
C130       C    0.2702978844    0.9339212874    0.8313560792          0.3305
C131       C    0.2294009218    0.9081071615    0.8489501381          0.3305
C132       C    0.2160627945    0.9214762140    0.8869834199          0.3305
C133       C    0.2970364052    0.9072748576    0.7552683253          0.3305
C134       C    0.2845155283    0.9864660238    0.8898319513          0.3305
C135       C    0.2978556941    0.9730943786    0.8518023345          0.3305
C136       C    0.2836503059    0.9205796201    0.7933129930          0.3305
C137       C    0.2436144890    0.9606570835    0.9074186802          0.3305
H138       H    0.2089962509    0.8791007564    0.8338371999          0.3305
H139       H    0.1857884967    0.9023705717    0.9000229948          0.3305
H140       H    0.3049104295    0.0154607417    0.9049614948          0.3305
H141       H    0.3281361071    0.9921922426    0.8387737545          0.3305
C118       C    0.3961244276    0.9972126695    0.4978358466          0.3305
C119       C    0.4333955512    0.0055006128    0.4751097823          0.3305
C120       C    0.4464328168    0.0314165485    0.4366429941          0.3305
C121       C    0.3700025907    0.9454247347    0.5748008868          0.3305
C122       C    0.3849293566    0.0407511862    0.4436243406          0.3305
C123       C    0.3718890304    0.0148305961    0.4820875733          0.3305
C124       C    0.3830780159    0.9713137252    0.5363150547          0.3305
C125       C    0.4222066014    0.0490484382    0.4209053873          0.3305
H126       H    0.4513372792    0.9924539419    0.4867443103          0.3305
H127       H    0.4740221527    0.0375553492    0.4198046837          0.3305
H128       H    0.3669942168    0.0537937389    0.4319718161          0.3305
H129       H    0.3442905126    0.0086778324    0.4989152171          0.3305
loop_
_geom_bond_atom_site_label_1
_geom_bond_atom_site_label_2
_geom_bond_distance
_geom_bond_site_symmetry_2
_ccdc_geom_bond_type
In1          O3 2.186       .   S
In1          O4 2.324       .   S
In1         O12 2.350       .   S
In1          O6 2.314       .   S
In1          O8 2.152       .   S
In1          O9 2.444       .   S
In1         O10 2.342       .   S
In1         O13 2.200       .   S
C2           O8 1.292       .   A
C2          O10 1.178       .   A
C2         C161 1.482       .   S
O3          C11 1.193       .   A
O4          C11 1.157       .   A
C5          O12 1.307       .   A
C5           O6 1.255       .   A
C5         C121 1.380       .   S
C7           O9 1.198       .   A
C7          O13 1.289       .   A
C7         C133 1.330       .   S
C11        C145 1.486       .   S
In14        O16 2.186       .   S
In14        O17 2.324       .   S
In14        O25 2.350       .   S
In14        O19 2.314       .   S
In14        O21 2.152       .   S
In14        O22 2.444       .   S
In14        O23 2.342       .   S
In14        O26 2.200       .   S
C15         O21 1.292       .   A
C15         O23 1.178       .   A
C15        C193 1.485       .   S
O16         C24 1.193       .   A
O17         C24 1.157       .   A
C18         O25 1.307       .   A
C18         O19 1.255       .   A
C18        C169 1.352       .   S
C20         O22 1.198       .   A
C20         O26 1.289       .   A
C20        C137 1.330       .   S
C24        C181 1.487       .   S
In27        O29 2.186       .   S
In27        O30 2.324       .   S
In27        O38 2.350       .   S
In27        O32 2.314       .   S
In27        O34 2.152       .   S
In27        O35 2.444       .   S
In27        O36 2.342       .   S
In27        O39 2.200       .   S
C28         O34 1.292       .   A
C28         O36 1.178       .   A
C28        C209 1.480       .   S
O29         C37 1.193       .   A
O30         C37 1.157       .   A
C31         O38 1.307       .   A
C31         O32 1.255       .   A
C31        C125 1.380   1_545   S
C33         O35 1.198       .   A
C33         O39 1.289       .   A
C33        C173 1.352   1_544   S
C37        C217 1.484       .   S
In40        O42 2.186       .   S
In40        O43 2.324       .   S
In40        O51 2.350       .   S
In40        O45 2.314       .   S
In40        O47 2.152       .   S
In40        O48 2.444       .   S
In40        O49 2.342       .   S
In40        O52 2.200       .   S
C41         O47 1.292       .   A
C41         O49 1.178       .   A
C41        C149 1.486       .   S
O42         C50 1.193       .   A
O43         C50 1.157       .   A
C44         O51 1.307       .   A
C44         O45 1.255       .   A
C44        C253 1.378       .   S
C46         O48 1.198       .   A
C46         O52 1.289       .   A
C46        C241 1.334       .   S
C50        C229 1.481       .   S
In53        O55 2.186       .   S
In53        O56 2.324       .   S
In53        O64 2.350       .   S
In53        O58 2.314       .   S
In53        O60 2.152       .   S
In53        O61 2.444       .   S
In53        O62 2.342       .   S
In53        O65 2.200       .   S
C54         O60 1.292       .   A
C54         O62 1.178       .   A
C54        C265 1.483       .   S
O55         C63 1.193       .   A
O56         C63 1.157       .   A
C57         O64 1.307       .   A
C57         O58 1.255       .   A
C57        C257 1.378       .   S
C59         O61 1.198       .   A
C59         O65 1.289       .   A
C59        C277 1.356       .   S
C63        C205 1.480       .   S
In66        O68 2.186       .   S
In66        O69 2.324       .   S
In66        O77 2.350       .   S
In66        O71 2.314       .   S
In66        O73 2.152       .   S
In66        O74 2.444       .   S
In66        O75 2.342       .   S
In66        O78 2.200       .   S
C67         O73 1.292       .   A
C67         O75 1.178       .   A
C67        C289 1.483       .   S
O68         C76 1.193       .   A
O69         C76 1.157       .   A
C70         O77 1.307       .   A
C70         O71 1.255       .   A
C70        C281 1.356   1_556   S
C72         O74 1.198       .   A
C72         O78 1.289       .   A
C72        C245 1.334       .   S
C76        C197 1.485   1_655   S
In79        O81 2.186       .   S
In79        O82 2.324       .   S
In79        O90 2.350       .   S
In79        O84 2.314       .   S
In79        O86 2.152       .   S
In79        O87 2.444       .   S
In79        O88 2.342       .   S
In79        O91 2.200       .   S
C80         O86 1.292       .   A
C80         O88 1.178       .   A
C80        C233 1.481       .   S
O81         C89 1.193       .   A
O82         C89 1.157       .   A
C83         O90 1.307       .   A
C83         O84 1.255       .   A
C83        C313 1.379       .   S
C85         O87 1.198       .   A
C85         O91 1.289       .   A
C85        C301 1.353       .   S
C89        C157 1.482       .   S
In92        O94 2.186       .   S
In92        O95 2.324       .   S
In92       O103 2.350       .   S
In92        O97 2.314       .   S
In92        O99 2.152       .   S
In92       O100 2.444       .   S
In92       O101 2.342       .   S
In92       O104 2.200       .   S
C93         O99 1.292       .   A
C93        O101 1.178       .   A
C93        C221 1.484       .   S
O94        C102 1.193       .   A
O95        C102 1.157       .   A
C96        O103 1.307       .   A
C96         O97 1.255       .   A
C96        C317 1.379   1_655   S
C98        O100 1.198       .   A
C98        O104 1.289       .   A
C98        C325 1.333       .   S
C102       C269 1.483       .   S
In105      O107 2.186       .   S
In105      O108 2.324       .   S
In105      O116 2.350       .   S
In105      O110 2.314       .   S
In105      O112 2.152       .   S
In105      O113 2.444       .   S
In105      O114 2.342       .   S
In105      O117 2.200       .   S
C106       O112 1.292       .   A
C106       O114 1.178       .   A
C106       C293 1.483   1_445   S
O107       C115 1.193       .   A
O108       C115 1.157       .   A
C109       O116 1.307       .   A
C109       O110 1.255       .   A
C109       C305 1.353       .   S
C111       O113 1.198       .   A
C111       O117 1.289       .   A
C111       C329 1.333   1_456   S
C115       C185 1.487   1_545   S
C322       C323 1.540       .   A
C322       C327 1.540       .   A
C322       C328 1.540       .   S
C323       C324 1.540       .   A
C323       H330 1.140       .   S
C324       C329 1.540       .   A
C324       H331 1.140       .   S
C328       C325 1.540       .   T
C329       C326 1.540       .   A
C326       C327 1.540       .   A
C326       H332 1.140       .   S
C327       H333 1.140       .   S
C310       C311 1.540       .   A
C310       C315 1.540       .   A
C310       C316 1.540       .   S
C311       C312 1.540       .   A
C311       H318 1.140       .   S
C312       C317 1.540       .   A
C312       H319 1.140       .   S
C316       C313 1.540       .   T
C317       C314 1.540       .   A
C314       C315 1.540       .   A
C314       H320 1.140       .   S
C315       H321 1.140       .   S
C298       C299 1.540       .   A
C298       C303 1.540       .   A
C298       C304 1.540       .   S
C299       C300 1.540       .   A
C299       H306 1.140       .   S
C300       C305 1.540       .   A
C300       H307 1.140       .   S
C304       C301 1.540       .   T
C305       C302 1.540       .   A
C302       C303 1.540       .   A
C302       H308 1.140       .   S
C303       H309 1.140       .   S
C286       C287 1.540       .   A
C286       C291 1.540       .   A
C286       C292 1.540       .   S
C287       C288 1.540       .   A
C287       H294 1.140       .   S
C288       C293 1.540       .   A
C288       H295 1.140       .   S
C292       C289 1.540       .   T
C293       C290 1.540       .   A
C290       C291 1.540       .   A
C290       H296 1.140       .   S
C291       H297 1.140       .   S
C274       C275 1.540       .   A
C274       C279 1.540       .   A
C274       C280 1.540       .   S
C275       C276 1.540       .   A
C275       H282 1.140       .   S
C276       C281 1.540       .   A
C276       H283 1.140       .   S
C280       C277 1.540       .   T
C281       C278 1.540       .   A
C278       C279 1.540       .   A
C278       H284 1.140       .   S
C279       H285 1.140       .   S
C262       C263 1.540       .   A
C262       C267 1.540       .   A
C262       C268 1.540       .   S
C263       C264 1.540       .   A
C263       H270 1.140       .   S
C264       C269 1.540       .   A
C264       H271 1.140       .   S
C268       C265 1.540       .   T
C269       C266 1.540       .   A
C266       C267 1.540       .   A
C266       H272 1.140       .   S
C267       H273 1.140       .   S
C250       C251 1.540       .   A
C250       C255 1.540       .   A
C250       C256 1.540       .   S
C251       C252 1.540       .   A
C251       H258 1.140       .   S
C252       C257 1.540       .   A
C252       H259 1.140       .   S
C256       C253 1.540       .   T
C257       C254 1.540       .   A
C254       C255 1.540       .   A
C254       H260 1.140       .   S
C255       H261 1.140       .   S
C238       C239 1.540       .   A
C238       C243 1.540       .   A
C238       C244 1.540       .   S
C239       C240 1.540       .   A
C239       H246 1.140       .   S
C240       C245 1.540       .   A
C240       H247 1.140       .   S
C244       C241 1.540       .   T
C245       C242 1.540       .   A
C242       C243 1.540       .   A
C242       H248 1.140       .   S
C243       H249 1.140       .   S
C226       C227 1.540       .   A
C226       C231 1.540       .   A
C226       C232 1.540       .   S
C227       C228 1.540       .   A
C227       H234 1.140       .   S
C228       C233 1.540       .   A
C228       H235 1.140       .   S
C232       C229 1.540       .   T
C233       C230 1.540       .   A
C230       C231 1.540       .   A
C230       H236 1.140       .   S
C231       H237 1.140       .   S
C214       C215 1.540       .   A
C214       C219 1.540       .   A
C214       C220 1.540       .   S
C215       C216 1.540       .   A
C215       H222 1.140       .   S
C216       C221 1.540       .   A
C216       H223 1.140       .   S
C220       C217 1.540       .   T
C221       C218 1.540       .   A
C218       C219 1.540       .   A
C218       H224 1.140       .   S
C219       H225 1.140       .   S
C202       C203 1.540       .   A
C202       C207 1.540       .   A
C202       C208 1.540       .   S
C203       C204 1.540       .   A
C203       H210 1.140       .   S
C204       C209 1.540       .   A
C204       H211 1.140       .   S
C208       C205 1.540       .   T
C209       C206 1.540       .   A
C206       C207 1.540       .   A
C206       H212 1.140       .   S
C207       H213 1.140       .   S
C190       C191 1.540       .   A
C190       C195 1.540       .   A
C190       C196 1.540       .   S
C191       C192 1.540       .   A
C191       H198 1.140       .   S
C192       C197 1.540       .   A
C192       H199 1.140       .   S
C196       C193 1.540       .   T
C197       C194 1.540       .   A
C194       C195 1.540       .   A
C194       H200 1.140       .   S
C195       H201 1.140       .   S
C178       C179 1.540       .   A
C178       C183 1.540       .   A
C178       C184 1.540       .   S
C179       C180 1.540       .   A
C179       H186 1.140       .   S
C180       C185 1.540       .   A
C180       H187 1.140       .   S
C184       C181 1.540       .   T
C185       C182 1.540       .   A
C182       C183 1.540       .   A
C182       H188 1.140       .   S
C183       H189 1.140       .   S
C166       C167 1.540       .   A
C166       C171 1.540       .   A
C166       C172 1.540       .   S
C167       C168 1.540       .   A
C167       H174 1.140       .   S
C168       C173 1.540       .   A
C168       H175 1.140       .   S
C172       C169 1.540       .   T
C173       C170 1.540       .   A
C170       C171 1.540       .   A
C170       H176 1.140       .   S
C171       H177 1.140       .   S
C154       C155 1.540       .   A
C154       C159 1.540       .   A
C154       C160 1.540       .   S
C155       C156 1.540       .   A
C155       H162 1.140       .   S
C156       C161 1.540       .   A
C156       H163 1.140       .   S
C160       C157 1.540       .   T
C161       C158 1.540       .   A
C158       C159 1.540       .   A
C158       H164 1.140       .   S
C159       H165 1.140       .   S
C142       C143 1.540       .   A
C142       C147 1.540       .   A
C142       C148 1.540       .   S
C143       C144 1.540       .   A
C143       H150 1.140       .   S
C144       C149 1.540       .   A
C144       H151 1.140       .   S
C148       C145 1.540       .   T
C149       C146 1.540       .   A
C146       C147 1.540       .   A
C146       H152 1.140       .   S
C147       H153 1.140       .   S
C130       C131 1.540       .   A
C130       C135 1.540       .   A
C130       C136 1.540       .   S
C131       C132 1.540       .   A
C131       H138 1.140       .   S
C132       C137 1.540       .   A
C132       H139 1.140       .   S
C136       C133 1.540       .   T
C137       C134 1.540       .   A
C134       C135 1.540       .   A
C134       H140 1.140       .   S
C135       H141 1.140       .   S
C118       C119 1.540       .   A
C118       C123 1.540       .   A
C118       C124 1.540       .   S
C119       C120 1.540       .   A
C119       H126 1.140       .   S
C120       C125 1.540       .   A
C120       H127 1.140       .   S
C124       C121 1.540       .   T
C125       C122 1.540       .   A
C122       C123 1.540       .   A
C122       H128 1.140       .   S
C123       H129 1.140       .   S
loop_
_modify_baseline_atom_site_label
_modified_remove_atom_site_label
C118	H129
C123	H141
C122	H153
C130	H165
C135	H177
C134	H189
C142	H201
C147	H213
C146	H225
C154	H237
C159	H249
C158	H261
C166	H273
C171	H285
C170	H297
C178	H309
C183	H321
C182	H333
C190	
C195	
C194	
C202	
C207	
C206	
C214	
C219	
C218	
C226	
C231	
C230	
C238	
C243	
C242	
C250	
C255	
C254	
C262	
C267	
C266	
C274	
C279	
C278	
C286	
C291	
C290	
C298	
C303	
C302	
C310	
C315	
C314	
C322	
C327	
C326	
