data_bor_v1-on13-3D_v2-on15-3D_1-oe27
_audit_creation_date              2023-10-27
_audit_creation_method            'newmof'
_symmetry_space_group_name_H-M    'P1'
_symmetry_Int_Tables_number       1
_symmetry_cell_setting            triclinic
loop_
_symmetry_equiv_pos_as_xyz
  x,y,z
_cell_length_a                    47.848539088219326
_cell_length_b                    47.807425807251555
_cell_length_c                    47.837356719099645
_cell_angle_alpha                 86.70030318237218
_cell_angle_beta                  93.32060179854079
_cell_angle_gamma                 93.04651760243792
loop_
_atom_site_label
_atom_site_type_symbol
_atom_site_fract_x
_atom_site_fract_y
_atom_site_fract_z
_atom_site_charge
B1         B    0.6485406261    0.7043265597    0.6462068048         -0.0042
O2         O    0.6301232148    0.6791611605    0.6514288776         -0.0042
O3         O    0.6786149272    0.7058086450    0.6548280778         -0.0042
C4         C    0.5922132158    0.6189169324    0.6411525576         -0.0042
C5         C    0.6996067058    0.7363882184    0.7138584290         -0.0042
H6         H    0.5770242607    0.6055239593    0.6287334242         -0.0042
H7         H    0.5960829745    0.6081650132    0.6621441904         -0.0042
H8         H    0.5824645983    0.6390824420    0.6440080830         -0.0042
H9         H    0.7140364544    0.7501994519    0.7266490875         -0.0042
H10        H    0.6933113440    0.7483684735    0.6940917039         -0.0042
H11        H    0.6805476069    0.7311002214    0.7257007081         -0.0042
B12        B    0.7022123996    0.6482737704    0.6487457908         -0.0042
O13        O    0.6764132955    0.6522922537    0.6310247778         -0.0042
O14        O    0.7057175892    0.6567982403    0.6778946670         -0.0042
C15        C    0.6138575865    0.6390443683    0.5972174481         -0.0042
C16        C    0.7402188715    0.7174444806    0.6910863737         -0.0042
H17        H    0.5990903150    0.6259859482    0.5840029327         -0.0042
H18        H    0.6043862638    0.6594873146    0.5994164127         -0.0042
H19        H    0.6335719653    0.6430383275    0.5861074343         -0.0042
H20        H    0.7553807652    0.7309023292    0.7034789950         -0.0042
H21        H    0.7508452656    0.6983099501    0.6862630402         -0.0042
H22        H    0.7345182495    0.7291557712    0.6709972055         -0.0042
B23        B    0.6493469743    0.6474996699    0.7051474044         -0.0042
O24        O    0.6511015060    0.6301193473    0.6809681925         -0.0042
O25        O    0.6594658868    0.6771421999    0.7051234118         -0.0042
C26        C    0.6328987159    0.5959393942    0.6225474169         -0.0042
C27        C    0.7223843155    0.6933552599    0.7351837783         -0.0042
H28        H    0.6184480292    0.5820988463    0.6098229065         -0.0042
H29        H    0.6528719213    0.5992882587    0.6117708710         -0.0042
H30        H    0.6373810041    0.5848891445    0.6432819570         -0.0042
H31        H    0.7372134791    0.7063907238    0.7483706576         -0.0042
H32        H    0.7036469110    0.6874381313    0.7473297852         -0.0042
H33        H    0.7327585026    0.6738794697    0.7310046158         -0.0042
Si34      Si    0.6448797408    0.6469017179    0.6478519218         -0.0042
C35        C    0.6197067931    0.6240614247    0.6261078316         -0.0042
Si36      Si    0.6888420988    0.6867902984    0.6858260793         -0.0042
C37        C    0.7140219926    0.7096368941    0.7075761696         -0.0042
B38        B    0.2571311185    0.7187959706    0.2307362816         -0.0042
O39        O    0.2744853145    0.6945006388    0.2291321732         -0.0042
O40        O    0.2275289761    0.7189185546    0.2204138480         -0.0042
C41        C    0.3085706973    0.6358785487    0.2476457778         -0.0042
C42        C    0.2114532672    0.7489883453    0.1573427244         -0.0042
H43        H    0.3223680107    0.6230919877    0.2622084208         -0.0042
H44        H    0.3052511344    0.6250802071    0.2276627979         -0.0042
H45        H    0.3196328653    0.6565602995    0.2432121179         -0.0042
H46        H    0.1984613287    0.7622325763    0.1424065062         -0.0042
H47        H    0.2173420031    0.7611410347    0.1761056756         -0.0042
H48        H    0.2309284002    0.7446822723    0.1471070066         -0.0042
B49        B    0.2003104543    0.6601258483    0.2312297418         -0.0042
O50        O    0.2254283888    0.6652431908    0.2498135830         -0.0042
O51        O    0.1988854226    0.6687129548    0.2011328665         -0.0042
C52        C    0.2855549136    0.6546894526    0.2881513200         -0.0042
C53        C    0.1684026345    0.7279207640    0.1798540416         -0.0042
H54        H    0.2989039619    0.6422121471    0.3034487977         -0.0042
H55        H    0.2963181230    0.6756311153    0.2843278362         -0.0042
H56        H    0.2653908163    0.6576736978    0.2977584342         -0.0042
H57        H    0.1546346191    0.7407733944    0.1653124528         -0.0042
H58        H    0.1564087704    0.7082155830    0.1860932195         -0.0042
H59        H    0.1736620045    0.7397734818    0.1989347833         -0.0042
B60        B    0.2564105077    0.6622717473    0.1779366131         -0.0042
O61        O    0.2523407197    0.6446015516    0.2037322345         -0.0042
O62        O    0.2479171294    0.6914831974    0.1743350234         -0.0042
C63        C    0.2654518318    0.6107977639    0.2664251675         -0.0042
C64        C    0.1873850435    0.7049621835    0.1393996026         -0.0042
H65        H    0.2784667945    0.5975256501    0.2812996844         -0.0042
H66        H    0.2450105659    0.6131260433    0.2757539267         -0.0042
H67        H    0.2614870390    0.5996696748    0.2466970368         -0.0042
H68        H    0.1739711088    0.7174133580    0.1241287772         -0.0042
H69        H    0.2065192013    0.7000129352    0.1289101653         -0.0042
H70        H    0.1756607239    0.6849318824    0.1450462781         -0.0042
Si71      Si    0.2576847944    0.6614624011    0.2352821721         -0.0042
C72        C    0.2804510449    0.6396175095    0.2606408967         -0.0042
Si73      Si    0.2179255230    0.6996125996    0.1909953708         -0.0042
C74        C    0.1951529904    0.7214635191    0.1656296488         -0.0042
B75        B    0.6356456431    0.2579342167    0.1733828648         -0.0042
O76        O    0.6408153128    0.2745617566    0.1982721932         -0.0042
O77        O    0.6432901089    0.2285454639    0.1727423668         -0.0042
C78        C    0.6301551500    0.3064640118    0.2573937894         -0.0042
C79        C    0.7025630282    0.2146241456    0.1441588971         -0.0042
H80        H    0.6178630715    0.3195796277    0.2701366581         -0.0042
H81        H    0.6507579856    0.3031975618    0.2687532523         -0.0042
H82        H    0.6339102929    0.3182479203    0.2371287094         -0.0042
H83        H    0.7152650894    0.2023350055    0.1309923461         -0.0042
H84        H    0.6833050550    0.2205243597    0.1315546134         -0.0042
H85        H    0.7149386413    0.2341571129    0.1493549416         -0.0042
B86        B    0.6347903683    0.1993083140    0.2305281883         -0.0042
O87        O    0.6180330652    0.2242169111    0.2255279616         -0.0042
O88        O    0.6641130877    0.1987309194    0.2228399836         -0.0042
C89        C    0.5859442392    0.2832555744    0.2366017427         -0.0042
C90        C    0.6778229407    0.1705015667    0.1633223106         -0.0042
H91        H    0.5728499325    0.2959184505    0.2489985994         -0.0042
H92        H    0.5890396419    0.2947368801    0.2160483166         -0.0042
H93        H    0.5742439759    0.2630051273    0.2327303886         -0.0042
H94        H    0.6900911818    0.1574168761    0.1505134119         -0.0042
H95        H    0.6720943769    0.1577816144    0.1825249353         -0.0042
H96        H    0.6582139600    0.1757572104    0.1509905048         -0.0042
B97        B    0.6931032533    0.2564851029    0.2316741318         -0.0042
O98        O    0.6683339254    0.2513716387    0.2484427888         -0.0042
O99        O    0.6935516814    0.2489680121    0.2022776651         -0.0042
C100       C    0.6094761206    0.2622211572    0.2806948435         -0.0042
C101       C    0.7219556459    0.1895487006    0.1881532533         -0.0042
H102       H    0.5968402493    0.2745336430    0.2938919498         -0.0042
H103       H    0.5980832238    0.2416787193    0.2774816575         -0.0042
H104       H    0.6297920048    0.2582945731    0.2923581648         -0.0042
H105       H    0.7350194950    0.1768196370    0.1757798779         -0.0042
H106       H    0.7346071037    0.2087258121    0.1939920450         -0.0042
H107       H    0.7168717769    0.1770995882    0.2077081573         -0.0042
Si108     Si    0.6358300628    0.2566260043    0.2306993268         -0.0042
C109       C    0.6142763856    0.2782186374    0.2524313271         -0.0042
Si110     Si    0.6734716804    0.2189163533    0.1927462832         -0.0042
C111       C    0.6950313050    0.1973177620    0.1710082862         -0.0042
B112       B    0.2202196820    0.2439031312    0.6781568730         -0.0042
O113       O    0.2121696285    0.2137488302    0.6788447310         -0.0042
O114       O    0.2160603449    0.2627326212    0.6529556956         -0.0042
C115       C    0.1754461770    0.1525355280    0.6902809815         -0.0042
C116       C    0.2699608215    0.2789922737    0.6129234846         -0.0042
H117       H    0.1629912799    0.1373439639    0.7036352593         -0.0042
H118       H    0.1802336490    0.1420543762    0.6710881926         -0.0042
H119       H    0.1955453847    0.1579446489    0.7020431019         -0.0042
H120       H    0.2832444051    0.2938244957    0.5999995354         -0.0042
H121       H    0.2677678774    0.2882450891    0.6334309271         -0.0042
H122       H    0.2809855735    0.2591349189    0.6167815823         -0.0042
B123       B    0.1616324204    0.2438190639    0.6209913450         -0.0042
O124       O    0.1621512457    0.2341165582    0.6507588870         -0.0042
O125       O    0.1859826782    0.2429821958    0.6036314131         -0.0042
C126       C    0.1528366267    0.1931751340    0.7094478089         -0.0042
C127       C    0.2261878548    0.3012681410    0.5928566241         -0.0042
H128       H    0.1399398717    0.1787205221    0.7231186144         -0.0042
H129       H    0.1725978800    0.1991452717    0.7215197021         -0.0042
H130       H    0.1411219646    0.2124333625    0.7042526734         -0.0042
H131       H    0.2386820287    0.3164906458    0.5795591847         -0.0042
H132       H    0.2052034354    0.2976996617    0.5820594751         -0.0042
H133       H    0.2233673824    0.3108492928    0.6130663141         -0.0042
B134       B    0.2180069404    0.1906140117    0.6219838871         -0.0042
O135       O    0.1886242424    0.1878901515    0.6296930046         -0.0042
O136       O    0.2358048156    0.2164419321    0.6252691941         -0.0042
C137       C    0.1314989703    0.1710446958    0.6662262022         -0.0042
C138       C    0.2446390771    0.2606387896    0.5696488216         -0.0042
H139       H    0.1182458898    0.1561598391    0.6791137247         -0.0042
H140       H    0.1194440962    0.1899675207    0.6604299727         -0.0042
H141       H    0.1356747005    0.1608657787    0.6466734171         -0.0042
H142       H    0.2574781293    0.2751290267    0.5559451179         -0.0042
H143       H    0.2552923964    0.2405078147    0.5728868691         -0.0042
H144       H    0.2239288690    0.2564892505    0.5585106455         -0.0042
Si145     Si    0.1809837771    0.2042308210    0.6599892563         -0.0042
C146       C    0.1590999119    0.1789875139    0.6826145157         -0.0042
Si147     Si    0.2192020396    0.2483160559    0.6204762134         -0.0042
C148       C    0.2410919435    0.2735663287    0.5978447108         -0.0042
C149       C    0.9048197769    0.4447229777    0.4607176356         -0.0042
C150       C    0.8782656764    0.4358161832    0.4700952910         -0.0042
C151       C    0.8541740431    0.4482862622    0.4582832683         -0.0042
C152       C    0.8564966401    0.4698676249    0.4373568601         -0.0042
C153       C    0.8329704728    0.4834547271    0.4253303772         -0.0042
C154       C    0.8361920137    0.5055319422    0.4048750717         -0.0042
C155       C    0.8630023530    0.5144776840    0.3964334298         -0.0042
C156       C    0.8673312883    0.5366740233    0.3763241120         -0.0042
C157       C    0.8946512966    0.5450202391    0.3689048739         -0.0042
C158       C    0.9174779638    0.5312371138    0.3819916043         -0.0042
C159       C    0.8864638135    0.5009809282    0.4085316418         -0.0042
C160       C    0.8832941745    0.4783453008    0.4286143188         -0.0042
C161       C    0.9956510404    0.3793064711    0.5065385248         -0.0042
C162       C    0.9463663724    0.5387585638    0.3750441773         -0.0042
C163       C    0.9635797782    0.5551263198    0.3930337696         -0.0042
C164       C    0.9923708190    0.5580761869    0.3895953529         -0.0042
C165       C    0.0043166614    0.5442542458    0.3684485291         -0.0042
C166       C    0.9867597662    0.5289277147    0.3496068162         -0.0042
C167       C    0.9579117158    0.5262529246    0.3528931037         -0.0042
C168       C    0.0350300939    0.5429567397    0.3689426328         -0.0042
C169       C    0.9627548893    0.5182683843    0.4705347160         -0.0042
C170       C    0.9875001292    0.5294300772    0.4838158524         -0.0042
C171       C    0.0134283398    0.5257227218    0.4726413678         -0.0042
C172       C    0.0147016483    0.5097425923    0.4490980879         -0.0042
C173       C    0.0402915550    0.5033307335    0.4386157540         -0.0042
C174       C    0.0407121432    0.4855112636    0.4163300204         -0.0042
C175       C    0.0155413420    0.4741921648    0.4040102509         -0.0042
C176       C    0.0151471301    0.4554731179    0.3824810223         -0.0042
C177       C    0.9895878603    0.4436096641    0.3718188853         -0.0042
C178       C    0.9643042596    0.4509937588    0.3823304522         -0.0042
C179       C    0.9898576024    0.4812094065    0.4138596899         -0.0042
C180       C    0.9894801140    0.4990436053    0.4363981914         -0.0042
C181       C    0.8591490579    0.5079774539    0.5269670385         -0.0042
C182       C    0.8574333663    0.3938880696    0.3593663134         -0.0042
Cu183     Cu    0.9371481458    0.4860598243    0.4228696856             1.0
N184       N    0.9064258494    0.4653791655    0.4399898994         -0.0042
N185       N    0.9125708083    0.5099296704    0.4012787073         -0.0042
N186       N    0.9645411294    0.5046314940    0.4466544885         -0.0042
N187       N    0.9652522757    0.4699095932    0.4025943321         -0.0042
N188       N    0.0119453077    0.3676474138    0.4903041186         -0.0042
N189       N    0.0463956380    0.5245392034    0.3548198209         -0.0042
N190       N    0.8372872400    0.5218669737    0.5186482420         -0.0042
N191       N    0.8530604540    0.3678163783    0.3679449856         -0.0042
C192       C    0.9375855486    0.4363413299    0.3739956557         -0.0042
C193       C    0.9350513373    0.4069371496    0.3765168590         -0.0042
C194       C    0.9090903705    0.3929107241    0.3714272576         -0.0042
C195       C    0.8853141717    0.4081153116    0.3634126846         -0.0042
C196       C    0.8881024089    0.4374730635    0.3600134589         -0.0042
C197       C    0.9140746986    0.4514725648    0.3653265550         -0.0042
C198       C    0.9746762001    0.3989603039    0.4948038971         -0.0042
C199       C    0.9562228145    0.4097756668    0.5127161930         -0.0042
C200       C    0.9341305977    0.4257681085    0.5017581872         -0.0042
C201       C    0.9302014362    0.4312800758    0.4726910042         -0.0042
C202       C    0.9493879580    0.4216099833    0.4549219867         -0.0042
C203       C    0.9715018506    0.4056085522    0.4658054134         -0.0042
H204       H    0.8761394130    0.4190975752    0.4862022453         -0.0042
H205       H    0.8338492767    0.4411873128    0.4655896146         -0.0042
H206       H    0.8121521937    0.4771290994    0.4318372150         -0.0042
H207       H    0.8178205454    0.5157372704    0.3958959307         -0.0042
H208       H    0.8497335260    0.5474938582    0.3664200997         -0.0042
H209       H    0.8979560594    0.5620245066    0.3533132416         -0.0042
H210       H    0.9966686988    0.3741728750    0.5289080437         -0.0042
H211       H    0.9549156072    0.5644488041    0.4105286154         -0.0042
H212       H    0.0055254307    0.5696928550    0.4045647429         -0.0042
H213       H    0.9954391938    0.5178902221    0.3332324232         -0.0042
H214       H    0.9448311486    0.5132266673    0.3390932051         -0.0042
H215       H    0.0472350788    0.5541598549    0.3848632402         -0.0042
H216       H    0.9867856692    0.5402347843    0.5030356590         -0.0042
H217       H    0.0324343172    0.5341880706    0.4831045761         -0.0042
H218       H    0.0599403502    0.5115145973    0.4480701700         -0.0042
H219       H    0.0606932975    0.4802468173    0.4090654186         -0.0042
H220       H    0.0345329404    0.4494523926    0.3744610700         -0.0042
H221       H    0.9895520686    0.4285156958    0.3557825521         -0.0042
H222       H    0.8588356706    0.4941780812    0.5457158008         -0.0042
H223       H    0.8401398704    0.4062007311    0.3511119235         -0.0042
H224       H    0.9529774232    0.3948922166    0.3834206023         -0.0042
H225       H    0.9075552590    0.3702461721    0.3741345126         -0.0042
H226       H    0.8700768654    0.4496226024    0.3537861075         -0.0042
H227       H    0.9158231783    0.4740582774    0.3626265904         -0.0042
H228       H    0.9583425712    0.4050733834    0.5351365911         -0.0042
H229       H    0.9196824512    0.4332528443    0.5159190495         -0.0042
H230       H    0.9463037640    0.4250500275    0.4325265890         -0.0042
H231       H    0.9853903133    0.3975833283    0.4514214441         -0.0042
C232       C    0.9362499665    0.5170614878    0.4845983573         -0.0042
C233       C    0.9119070734    0.5280468660    0.4717710048         -0.0042
C234       C    0.8866691506    0.5251098445    0.4853822040         -0.0042
C235       C    0.8852355123    0.5107694080    0.5118863475         -0.0042
C236       C    0.9092448779    0.4990956879    0.5249469487         -0.0042
C237       C    0.9347107321    0.5020443190    0.5122924370         -0.0042
H238       H    0.9124578786    0.5390183086    0.4513528257         -0.0042
H239       H    0.8681469218    0.5339413703    0.4750583453         -0.0042
H240       H    0.9083344353    0.4878714503    0.5452323569         -0.0042
H241       H    0.9530744739    0.4928615393    0.5225655517         -0.0042
C242       C    0.4081531118    0.9869915514    0.4211551910         -0.0042
C243       C    0.3980580728    0.0131715752    0.4115454617         -0.0042
C244       C    0.4092589155    0.0377827584    0.4233054232         -0.0042
C245       C    0.4302879814    0.0363530369    0.4448757053         -0.0042
C246       C    0.4417198587    0.0604273595    0.4577657394         -0.0042
C247       C    0.4623019474    0.0580997827    0.4798564496         -0.0042
C248       C    0.4714672695    0.0316454818    0.4895135372         -0.0042
C249       C    0.4917325345    0.0282057720    0.5117543024         -0.0042
C250       C    0.4998874938    0.0012079306    0.5208287264         -0.0042
C251       C    0.4873760810    0.9778077676    0.5077252866         -0.0042
C252       C    0.4599620442    0.0076364307    0.4767119803         -0.0042
C253       C    0.4397533788    0.0099073213    0.4540648812         -0.0042
C254       C    0.3646102241    0.8937719554    0.3584555692         -0.0042
C255       C    0.4950991623    0.9492133869    0.5160207576         -0.0042
C256       C    0.4775761966    0.9319914596    0.5328584200         -0.0042
C257       C    0.4817794270    0.9033237203    0.5365942021         -0.0042
C258       C    0.5032334273    0.8914950560    0.5230997097         -0.0042
C259       C    0.5216013739    0.9091005530    0.5072903607         -0.0042
C260       C    0.5175492356    0.9378344124    0.5038272876         -0.0042
C261       C    0.5035467505    0.8607320701    0.5226558983         -0.0042
C262       C    0.3999599265    0.9304515332    0.4961687016         -0.0042
C263       C    0.3873392610    0.9056753981    0.5080124467         -0.0042
C264       C    0.3991980708    0.8798808698    0.5050138268         -0.0042
C265       C    0.4227655427    0.8787294086    0.4890665166         -0.0042
C266       C    0.4339191460    0.8532000781    0.4833605939         -0.0042
C267       C    0.4562033520    0.8528360410    0.4655559755         -0.0042
C268       C    0.4678506905    0.8780151304    0.4535447994         -0.0042
C269       C    0.4893552519    0.8784312620    0.4348210155         -0.0042
C270       C    0.4993330569    0.9039537269    0.4222583169         -0.0042
C271       C    0.4881596300    0.9291973804    0.4289430099         -0.0042
C272       C    0.4573286965    0.9036643194    0.4598513242         -0.0042
C273       C    0.4347927411    0.9039804873    0.4776722118         -0.0042
C274       C    0.3407517791    0.0327358623    0.4831146986         -0.0042
C275       C    0.5082401366    0.0353156560    0.3689611737         -0.0042
Cu276     Cu    0.4469312850    0.9563183787    0.4632459980             1.0
N277       N    0.4289632255    0.9862543295    0.4417826507         -0.0042
N278       N    0.4679194763    0.9818619210    0.4863543637         -0.0042
N279       N    0.4238813080    0.9288451239    0.4825735338         -0.0042
N280       N    0.4679359783    0.9282569743    0.4478766227         -0.0042
N281       N    0.3812667418    0.8775420672    0.3472472514         -0.0042
N282       N    0.5179512171    0.8492420288    0.5045696287         -0.0042
N283       N    0.3485182324    0.0550773967    0.4963581414         -0.0042
N284       N    0.4995052651    0.0389459361    0.3428345634         -0.0042
C285       C    0.4957743858    0.9557717839    0.4135684162         -0.0042
C286       C    0.4931441184    0.9576112534    0.3841580014         -0.0042
C287       C    0.4975327492    0.9833761909    0.3694339506         -0.0042
C288       C    0.5049461853    0.0076555401    0.3839372245         -0.0042
C289       C    0.5084615854    0.0055785686    0.4133070284         -0.0042
C290       C    0.5038495988    0.9797972247    0.4280048572         -0.0042
C291       C    0.3758257684    0.9154212447    0.3774709900         -0.0042
C292       C    0.3574323643    0.9337588287    0.3877800680         -0.0042
C293       C    0.3678363203    0.9564299843    0.4031118134         -0.0042
C294       C    0.3968234829    0.9610652922    0.4084603524         -0.0042
C295       C    0.4150944460    0.9420165510    0.3993147121         -0.0042
C296       C    0.4047656687    0.9193250124    0.3839744845         -0.0042
H297       H    0.3818630302    0.0146083608    0.3948262290         -0.0042
H298       H    0.4014030148    0.0578124427    0.4156692087         -0.0042
H299       H    0.4346519714    0.0809837578    0.4508864085         -0.0042
H300       H    0.4708159757    0.0768821429    0.4895188841         -0.0042
H301       H    0.5011931860    0.0462462007    0.5220500264         -0.0042
H302       H    0.5155983916    0.9985881335    0.5378664298         -0.0042
H303       H    0.3422481721    0.8921920297    0.3533940286         -0.0042
H304       H    0.4598564045    0.9405119057    0.5419480659         -0.0042
H305       H    0.4671647293    0.8901185002    0.5485736234         -0.0042
H306       H    0.5381981182    0.9005047196    0.4964913098         -0.0042
H307       H    0.5309937945    0.9509111508    0.4904449561         -0.0042
H308       H    0.4879547119    0.8484486452    0.5341977418         -0.0042
H309       H    0.3681051549    0.9062411124    0.5188039445         -0.0042
H310       H    0.3892418548    0.8608435326    0.5140036484         -0.0042
H311       H    0.4249888242    0.8335337759    0.4920857975         -0.0042
H312       H    0.4639912343    0.8328780454    0.4608446402         -0.0042
H313       H    0.4978821542    0.8590674076    0.4293373395         -0.0042
H314       H    0.5153562118    0.9039805067    0.4071703133         -0.0042
H315       H    0.3219653271    0.0323700907    0.4693628597         -0.0042
H316       H    0.5160603605    0.0530513231    0.3807575549         -0.0042
H317       H    0.4866923239    0.9392757667    0.3726442990         -0.0042
H318       H    0.4947520345    0.9843603046    0.3467773120         -0.0042
H319       H    0.5142341426    0.0240022588    0.4249233784         -0.0042
H320       H    0.5066285330    0.9785977892    0.4505887356         -0.0042
H321       H    0.3350490528    0.9310848435    0.3831795451         -0.0042
H322       H    0.3532973307    0.9707631568    0.4102023668         -0.0042
H323       H    0.4374255689    0.9456271329    0.4026289153         -0.0042
H324       H    0.4195123841    0.9055443518    0.3763287212         -0.0042
C325       C    0.3851883476    0.9566571540    0.4942514691         -0.0042
C326       C    0.3973963873    0.9815075118    0.5045212965         -0.0042
C327       C    0.3831084851    0.0064168062    0.5009118808         -0.0042
C328       C    0.3565321383    0.0070040597    0.4866006427         -0.0042
C329       C    0.3440809745    0.9824675662    0.4756349962         -0.0042
C330       C    0.3574176904    0.9573112974    0.4792637355         -0.0042
H331       H    0.4178554924    0.9816072738    0.5154550735         -0.0042
H332       H    0.3929620813    0.0253468536    0.5091971436         -0.0042
H333       H    0.3237448825    0.9827246934    0.4644387867         -0.0042
H334       H    0.3476102003    0.9385331086    0.4706234741         -0.0042
C335       C    0.4438232253    0.4267612567    0.9063496631         -0.0042
C336       C    0.4510775295    0.4173040600    0.8805109431         -0.0042
C337       C    0.4394134777    0.4291980111    0.8553346726         -0.0042
C338       C    0.4202576963    0.4502873808    0.8558374498         -0.0042
C339       C    0.4075135474    0.4624044892    0.8311285719         -0.0042
C340       C    0.3878284609    0.4830269603    0.8324846725         -0.0042
C341       C    0.3804347670    0.4915486129    0.8585716877         -0.0042
C342       C    0.3606158850    0.5118265486    0.8610241443         -0.0042
C343       C    0.3537170546    0.5193215712    0.8876698453         -0.0042
C344       C    0.3665214960    0.5061424564    0.9116904630         -0.0042
C345       C    0.3930790085    0.4793604306    0.8832073339         -0.0042
C346       C    0.4133658688    0.4591063747    0.8819550307         -0.0042
C347       C    0.5060536860    0.3804925671    0.0029089615         -0.0042
C348       C    0.3604286500    0.5131602203    0.9399778511         -0.0042
C349       C    0.3424039215    0.4953035356    0.9556573786         -0.0042
C350       C    0.3404823398    0.4987779078    0.9842381016         -0.0042
C351       C    0.3569657932    0.5198249208    0.9975426532         -0.0042
C352       C    0.3740383662    0.5385413777    0.9814304645         -0.0042
C353       C    0.3757008741    0.5352211763    0.9527688432         -0.0042
C354       C    0.3588880442    0.5193358362    0.0284078362         -0.0042
C355       C    0.3704540187    0.4175280963    0.9577311079         -0.0042
C356       C    0.3583358128    0.4043439141    0.9814413758         -0.0042
C357       C    0.3638846580    0.4155022668    0.0077904362         -0.0042
C358       C    0.3825612766    0.4389241630    0.0106143614         -0.0042
C359       C    0.3907284671    0.4493698138    0.0368629715         -0.0042
C360       C    0.4110828183    0.4715199303    0.0389911470         -0.0042
C361       C    0.4232399858    0.4837414050    0.0148639512         -0.0042
C362       C    0.4443900183    0.5051278716    0.0162528790         -0.0042
C363       C    0.4568949498    0.5156875070    0.9917769355         -0.0042
C364       C    0.4477590647    0.5052201154    0.9657479360         -0.0042
C365       C    0.4145371308    0.4739331412    0.9884704964         -0.0042
C366       C    0.3941403483    0.4515304028    0.9863828666         -0.0042
C367       C    0.3720492224    0.3609712719    0.8546280926         -0.0042
C368       C    0.5050954715    0.5277002058    0.8639670141         -0.0042
Cu369     Cu    0.4074970249    0.4649348930    0.9352156785             1.0
N370       N    0.4255541469    0.4476446327    0.9062167284         -0.0042
N371       N    0.3855319469    0.4866931255    0.9085837889         -0.0042
N372       N    0.3868371299    0.4413048664    0.9608608153         -0.0042
N373       N    0.4265680001    0.4851006806    0.9649023701         -0.0042
N374       N    0.5199138265    0.3966458641    0.0203488821         -0.0042
N375       N    0.3791575356    0.5333242365    0.0415063852         -0.0042
N376       N    0.3586191937    0.3693839846    0.8315396619         -0.0042
N377       N    0.5300958154    0.5189229872    0.8618759129         -0.0042
C378       C    0.4627632067    0.5134309159    0.9403485827         -0.0042
C379       C    0.4918233718    0.5106865471    0.9404273694         -0.0042
C380       C    0.5058504097    0.5156574251    0.9157141590         -0.0042
C381       C    0.4910284711    0.5237749417    0.8905898281         -0.0042
C382       C    0.4621199129    0.5273970561    0.8907740193         -0.0042
C383       C    0.4480947084    0.5222024979    0.9154998327         -0.0042
C384       C    0.4872666827    0.3923648861    0.9802106713         -0.0042
C385       C    0.4740120770    0.3745263800    0.9606758076         -0.0042
C386       C    0.4587733944    0.3855939282    0.9371821478         -0.0042
C387       C    0.4564703381    0.4146992424    0.9329037229         -0.0042
C388       C    0.4685797578    0.4324034810    0.9530695055         -0.0042
C389       C    0.4838363655    0.4214104505    0.9765860528         -0.0042
H390       H    0.4659216668    0.4010706997    0.8797945794         -0.0042
H391       H    0.4452329956    0.4218286632    0.8355819867         -0.0042
H392       H    0.4126395038    0.4558402088    0.8108166990         -0.0042
H393       H    0.3782346192    0.4920738360    0.8132237165         -0.0042
H394       H    0.3505295914    0.5218032583    0.8424876388         -0.0042
H395       H    0.3385549748    0.5350423631    0.8895380038         -0.0042
H396       H    0.5086732365    0.3580860022    0.0042726334         -0.0042
H397       H    0.3309064311    0.4778758955    0.9460595359         -0.0042
H398       H    0.3274608345    0.4839034195    0.9962939992         -0.0042
H399       H    0.3871240504    0.5548356811    0.9911911993         -0.0042
H400       H    0.3900009178    0.5489156271    0.9409071407         -0.0042
H401       H    0.3461511635    0.5035066024    0.0395450416         -0.0042
H402       H    0.3453368521    0.3852064322    0.9796618122         -0.0042
H403       H    0.3546548837    0.4051127278    0.0260097642         -0.0042
H404       H    0.3819087859    0.4399871948    0.0557562379         -0.0042
H405       H    0.4176135123    0.4787539920    0.0595049924         -0.0042
H406       H    0.4517493845    0.5131112433    0.0362421157         -0.0042
H407       H    0.4738053084    0.5316089341    0.9931725569         -0.0042
H408       H    0.3837149805    0.3421191713    0.8554523616         -0.0042
H409       H    0.4933361626    0.5360388059    0.8455932549         -0.0042
H410       H    0.5034821299    0.5037008457    0.9594174674         -0.0042
H411       H    0.5281724543    0.5127783992    0.9161897488         -0.0042
H412       H    0.4502776617    0.5337071452    0.8716715324         -0.0042
H413       H    0.4258554013    0.5250737410    0.9152448887         -0.0042
H414       H    0.4762190064    0.3520727272    0.9631041273         -0.0042
H415       H    0.4493633171    0.3714834215    0.9219744650         -0.0042
H416       H    0.4676107683    0.4548221370    0.9497882763         -0.0042
H417       H    0.4937997832    0.4357397000    0.9912828191         -0.0042
C418       C    0.3694787366    0.4034433524    0.9312292447         -0.0042
C419       C    0.3594088338    0.4163412424    0.9059393345         -0.0042
C420       C    0.3602429448    0.4026964584    0.8808630512         -0.0042
C421       C    0.3715455905    0.3760847795    0.8805744404         -0.0042
C422       C    0.3822699493    0.3629482940    0.9055907610         -0.0042
C423       C    0.3813208129    0.3756366408    0.9308893354         -0.0042
H424       H    0.3507653569    0.4368414231    0.9056141512         -0.0042
H425       H    0.3521719350    0.4130775288    0.8615808467         -0.0042
H426       H    0.3911732853    0.3425787944    0.9055791395         -0.0042
H427       H    0.3897452930    0.3653035824    0.9500445202         -0.0042
C692       C    0.2708846915    0.1406870866    0.5742433485         -0.0042
H693       H    0.2403471031    0.1397381537    0.5380870821         -0.0042
C694       C    0.2535553839    0.1577429438    0.5904178802         -0.0042
C695       C    0.2930343858    0.1590948038    0.5581354342         -0.0042
H696       H    0.3072185848    0.1707919671    0.5731611051         -0.0042
H697       H    0.2824995145    0.1749213748    0.5437701896         -0.0042
C698       C    0.3105913189    0.1405174916    0.5408787162         -0.0042
H699       H    0.3084320522    0.1474825860    0.5182791354         -0.0042
H700       H    0.3331677900    0.1433438879    0.5476576188         -0.0138
C701       C    0.2376213806    0.1702443196    0.6031036918         -0.0042
C702       C    0.3038959667    0.1003696973    0.5766954905         -0.0042
C703       C    0.3006757766    0.1091584883    0.5449756920         -0.0042
C704       C    0.2517095490    0.1246286764    0.5526055844         -0.0042
C705       C    0.2863833777    0.1189072590    0.5939068860         -0.0042
H706       H    0.2968540113    0.0779431446    0.5803371568         -0.0042
H707       H    0.3263417365    0.1024283439    0.5841726915         -0.0042
C708       C    0.3167914246    0.0911332181    0.5286013656         -0.0042
H709       H    0.2355837517    0.1111343032    0.5635448959         -0.0042
H710       H    0.2709975259    0.1053186235    0.6057504133         -0.0042
H711       H    0.3004506994    0.1298369229    0.6096088900         -0.0042
C712       C    0.2691790457    0.1061464226    0.5354477895         -0.0042
H713       H    0.2661717225    0.1124367911    0.5127334272         -0.0042
H714       H    0.2613921422    0.0838430334    0.5382142739         -0.0042
C715       C    0.3289037922    0.0754470888    0.5152383367         -0.0042
C668       C    0.1071349355    0.2914362234    0.5690149791         -0.0042
H669       H    0.0973586833    0.3176039383    0.6031604996         -0.0042
C670       C    0.1267636433    0.2746511078    0.5869537737         -0.0042
C671       C    0.1226207246    0.3159075139    0.5525314042         -0.0042
H672       H    0.1378689574    0.3074914977    0.5388496465         -0.0042
H673       H    0.1347521888    0.3296865998    0.5673577030         -0.0042
C674       C    0.1012704036    0.3335019314    0.5342376716         -0.0042
H675       H    0.1032170854    0.3556765220    0.5403372695         -0.0042
H676       H    0.1063226496    0.3334958971    0.5118128152         -0.0042
C677       C    0.1412112751    0.2607124134    0.6031622695         -0.0042
C678       C    0.0691508418    0.2903833937    0.5293963301         -0.0042
C679       C    0.0709041106    0.3212764835    0.5379708882         -0.0042
C680       C    0.0859962237    0.3040272967    0.5876307619         -0.0042
C681       C    0.0904539281    0.2728363761    0.5476453202         -0.0042
H682       H    0.0475882580    0.2809771826    0.5319306841         -0.0042
H683       H    0.0735916262    0.2895394006    0.5068798587         -0.0042
C684       C    0.0502339531    0.3377560377    0.5210749673         -0.0042
H685       H    0.0744619980    0.2869426506    0.5997119293         -0.0042
H686       H    0.0790471275    0.2550695073    0.5588752378         -0.0042
H687       H    0.1050867485    0.2636069335    0.5338611638         -0.0042
C688       C    0.0647575097    0.3215222248    0.5694269843         -0.0042
H689       H    0.0659843998    0.3434602059    0.5762527169         -0.0042
H690       H    0.0431019928    0.3127746333    0.5728189539         -0.0042
C691       C    0.0323664529    0.3507540643    0.5081331941         -0.0042
C644       C    0.3028040115    0.3216982180    0.7745118073         -0.0042
H645       H    0.3302538177    0.2860733191    0.7767236155         -0.0042
C646       C    0.3212474085    0.3379519932    0.7940339577         -0.0042
C647       C    0.2789742474    0.3049544002    0.7898128852         -0.0042
H648       H    0.2658910475    0.3195825683    0.7999974171         -0.0042
H649       H    0.2880211140    0.2905564280    0.8066781057         -0.0042
C650       C    0.2602348387    0.2876344063    0.7687218204         -0.0042
H651       H    0.2603418141    0.2649718992    0.7755263312         -0.0042
H652       H    0.2381941620    0.2939854374    0.7688340318         -0.0042
C653       C    0.3380693758    0.3507523533    0.8087650991         -0.0042
C654       C    0.2706521741    0.3241149412    0.7301298517         -0.0042
C655       C    0.2710077710    0.2923232795    0.7387180746         -0.0042
C656       C    0.3203809536    0.3006006522    0.7604735912         -0.0042
C657       C    0.2893439874    0.3413893565    0.7511747769         -0.0042
H658       H    0.2783683913    0.3281792897    0.7086797204         -0.0042
H659       H    0.2488145225    0.3311770147    0.7295046522         -0.0042
C660       C    0.2537765382    0.2759036669    0.7183763338         -0.0042
H661       H    0.3376637671    0.3120038991    0.7492262386         -0.0042
H662       H    0.3059659787    0.3536855168    0.7397572216         -0.0042
H663       H    0.2764480985    0.3567063507    0.7606199967         -0.0042
C664       C    0.3017359438    0.2833798671    0.7394903455         -0.0042
H665       H    0.3026920191    0.2606262793    0.7457252847         -0.0042
H666       H    0.3101200126    0.2865800474    0.7182404645         -0.0042
C667       C    0.2407694999    0.2625347625    0.7009314358         -0.0042
C620       C    0.5625368649    0.3453386213    0.0811221778         -0.0042
H621       H    0.6033068907    0.3553994654    0.0629861441         -0.0042
C622       C    0.5472990359    0.3635289732    0.0602268260         -0.0042
C623       C    0.5707444472    0.3605809499    0.1084093820         -0.0042
H624       H    0.5515892942    0.3670671321    0.1179488805         -0.0042
H625       H    0.5838738834    0.3799851107    0.1035517639         -0.0042
C626       C    0.5872423900    0.3410004295    0.1297865674         -0.0042
H627       H    0.6082439610    0.3510647490    0.1351276759         -0.0042
H628       H    0.5759698005    0.3381357941    0.1495442674         -0.0042
C629       C    0.5359389983    0.3774387174    0.0415392163         -0.0042
C630       C    0.5608373264    0.2988994683    0.1101261322         -0.0042
C631       C    0.5905185594    0.3121061628    0.1173908808         -0.0042
C632       C    0.5897512501    0.3364983480    0.0686284555         -0.0042
C633       C    0.5443815021    0.3184377191    0.0888038415         -0.0042
H634       H    0.5624850057    0.2781357232    0.1010859454         -0.0042
H635       H    0.5490474042    0.2952286129    0.1295011132         -0.0042
C636       C    0.6063433226    0.2932548356    0.1371317549         -0.0042
H637       H    0.5845511130    0.3254101993    0.0490042692         -0.0042
H638       H    0.5381863976    0.3069883253    0.0696044445         -0.0042
H639       H    0.5247275409    0.3241177732    0.0979808178         -0.0042
C640       C    0.6061540831    0.3170161777    0.0898952434         -0.0042
H641       H    0.6275413943    0.3266180978    0.0944220131         -0.0042
H642       H    0.6087647498    0.2966391622    0.0804178083         -0.0042
C643       C    0.6196204713    0.2771413634    0.1521925307         -0.0042
C596       C    0.5525326882    0.0975832600    0.2985082642         -0.0042
H597       H    0.5668968819    0.1188204967    0.3367163510         -0.0042
C598       C    0.5342879018    0.0767992668    0.3136156649         -0.0042
C599       C    0.5816473067    0.0860866742    0.2943358509         -0.0042
H600       H    0.5791381718    0.0669875013    0.2819855727         -0.0042
H601       H    0.5920382458    0.0798591956    0.3150160764         -0.0042
C602       C    0.6005471722    0.1087087503    0.2788163805         -0.0042
H603       H    0.6199562095    0.1132733247    0.2920941024         -0.0042
H604       H    0.6070727768    0.1004138056    0.2590508651         -0.0042
C605       C    0.5185756618    0.0615513382    0.3270033516         -0.0042
C606       C    0.5576799766    0.1286572511    0.2537904910         -0.0042
C607       C    0.5845893520    0.1359679390    0.2721665072         -0.0042
C608       C    0.5569710739    0.1242400691    0.3156052853         -0.0042
C609       C    0.5388310078    0.1060867139    0.2692744334         -0.0042
H610       H    0.5456992421    0.1478142087    0.2487240191         -0.0042
H611       H    0.5633733195    0.1207378553    0.2335434858         -0.0042
C612       C    0.6021508321    0.1578516255    0.2577159559         -0.0042
H613       H    0.5364093632    0.1330604323    0.3189036956         -0.0042
H614       H    0.5178697866    0.1144841558    0.2715871279         -0.0042
H615       H    0.5355150320    0.0873715133    0.2564398767         -0.0042
C616       C    0.5757665960    0.1467411590    0.3001592320         -0.0042
H617       H    0.5946780985    0.1520601984    0.3138876057         -0.0042
H618       H    0.5641655135    0.1662822471    0.2960836308         -0.0042
C619       C    0.6157199716    0.1767029119    0.2463594001         -0.0042
C572       C    0.7565021931    0.2971306466    0.2823772017         -0.0042
H573       H    0.7335597707    0.2883537944    0.3207015836         -0.0042
C574       C    0.7348415005    0.2827423868    0.2644756807         -0.0042
C575       C    0.7804405232    0.2775830235    0.2922557683         -0.0042
H576       H    0.7906625497    0.2704070772    0.2737966503         -0.0042
H577       H    0.7717722170    0.2585404995    0.3039005474         -0.0042
C578       C    0.8026524472    0.2932346769    0.3115191024         -0.0042
H579       H    0.8045807575    0.2816575577    0.3323552487         -0.0042
H580       H    0.8234907931    0.2935317420    0.3022640010         -0.0042
C581       C    0.7155896953    0.2721358160    0.2508307976         -0.0042
C582       C    0.7916018154    0.3390057653    0.2855801599         -0.0042
C583       C    0.7941895951    0.3236976120    0.3150513317         -0.0042
C584       C    0.7429680352    0.3067941612    0.3086805608         -0.0042
C585       C    0.7694458393    0.3233863490    0.2663656579         -0.0042
H586       H    0.7854547608    0.3609425937    0.2874052233         -0.0042
H587       H    0.8122234955    0.3401806955    0.2758161763         -0.0042
C588       C    0.8147543029    0.3388946086    0.3334627403         -0.0042
H589       H    0.7257055656    0.3209520199    0.3022794778         -0.0042
H590       H    0.7527418452    0.3378761053    0.2590333050         -0.0042
H591       H    0.7794693341    0.3170844662    0.2474178681         -0.0042
C592       C    0.7650665417    0.3223681016    0.3278347140         -0.0042
H593       H    0.7662238248    0.3113586695    0.3490022832         -0.0042
H594       H    0.7583481563    0.3439507419    0.3305569420         -0.0042
C595       C    0.8305740121    0.3521656652    0.3487883198         -0.0042
C548       C    0.3035472659    0.6103418873    0.1281220188         -0.0042
H549       H    0.3350332669    0.6444055100    0.1191918539         -0.0042
C550       C    0.2874909490    0.6275617405    0.1453963824         -0.0042
C551       C    0.3244974845    0.5923449068    0.1463405530         -0.0042
H552       H    0.3129877697    0.5779858348    0.1613566593         -0.0042
H553       H    0.3391950648    0.6061236480    0.1589442626         -0.0042
C554       C    0.3414611605    0.5748498852    0.1274409229         -0.0042
H555       H    0.3642533577    0.5802828760    0.1310291162         -0.0042
H556       H    0.3380593035    0.5521289523    0.1334323428         -0.0042
C557       C    0.2744880701    0.6432810091    0.1578438581         -0.0042
C558       C    0.3004722201    0.5729520266    0.0920055282         -0.0042
C559       C    0.3323171694    0.5806536067    0.0960484850         -0.0042
C560       C    0.3203796356    0.6298735018    0.1074002540         -0.0042
C561       C    0.2835539743    0.5904038603    0.1108642636         -0.0042
H562       H    0.2932394804    0.5769747201    0.0696566186         -0.0042
H563       H    0.2962730374    0.5501959416    0.0973208590         -0.0042
C564       C    0.3482945465    0.5645449036    0.0776676697         -0.0042
H565       H    0.3058903418    0.6430533230    0.0939379208         -0.0042
H566       H    0.2682597632    0.6027419774    0.0975064196         -0.0042
H567       H    0.2712703466    0.5759984677    0.1252029446         -0.0042
C568       C    0.3372463767    0.6124644473    0.0885990158         -0.0042
H569       H    0.3599593299    0.6186713976    0.0914200602         -0.0042
H570       H    0.3307928961    0.6173337971    0.0661775720         -0.0042
C571       C    0.3610799732    0.5523149747    0.0615991402         -0.0042
C524       C    0.1440026543    0.6065633343    0.2801024477         -0.0042
H525       H    0.1174776528    0.5953160960    0.2429314117         -0.0042
C526       C    0.1636617510    0.6246559957    0.2636953608         -0.0042
C527       C    0.1545791086    0.5765289303    0.2858350476         -0.0042
H528       H    0.1752189298    0.5774042214    0.2978372710         -0.0042
H529       H    0.1577227965    0.5669195788    0.2656700513         -0.0042
C530       C    0.1331122491    0.5578489867    0.3027129309         -0.0042
H531       H    0.1260147597    0.5393265115    0.2905985812         -0.0042
H532       H    0.1434995767    0.5497943662    0.3227796436         -0.0042
C533       C    0.1779089553    0.6403919191    0.2492176334         -0.0042
C534       C    0.1183926800    0.6005117739    0.3255005347         -0.0042
C535       C    0.1075797695    0.5748794015    0.3087484304         -0.0042
C536       C    0.1151687740    0.6043940798    0.2635455118         -0.0042
C537       C    0.1398102840    0.6191412830    0.3086617280         -0.0042
H538       H    0.1005339721    0.6132275976    0.3300912279         -0.0042
H539       H    0.1285053699    0.5932850934    0.3460051467         -0.0042
C540       C    0.0867780129    0.5575642601    0.3244708468         -0.0042
H541       H    0.1069586053    0.6256601151    0.2591527742         -0.0042
H542       H    0.1321615117    0.6407328401    0.3052276698         -0.0042
H543       H    0.1601662375    0.6208192702    0.3211062067         -0.0042
C544       C    0.0938180625    0.5858167895    0.2803425319         -0.0042
H545       H    0.0859379841    0.5678565948    0.2677567800         -0.0042
H546       H    0.0754368317    0.5982253473    0.2839678049         -0.0042
C547       C    0.0687971370    0.5442731326    0.3368319293         -0.0042
C500       C    0.3350028333    0.8189275762    0.3000742663         -0.0042
H501       H    0.2973003227    0.8223500833    0.3236199016         -0.0042
C502       C    0.3515804825    0.8399135347    0.3162725731         -0.0042
C503       C    0.3216102384    0.8322145435    0.2724509338         -0.0042
H504       H    0.3382702131    0.8417229502    0.2590623395         -0.0042
H505       H    0.3080237771    0.8493497737    0.2771639569         -0.0042
C506       C    0.3038436352    0.8096275836    0.2561410166         -0.0042
H507       H    0.2817796756    0.8159884283    0.2530728264         -0.0042
H508       H    0.3120138545    0.8083486169    0.2349547965         -0.0042
C509       C    0.3643883560    0.8559577887    0.3314055692         -0.0042
C510       C    0.3359271899    0.7726113003    0.2763373061         -0.0042
C511       C    0.3048694429    0.7805959450    0.2724026888         -0.0042
C512       C    0.3111409666    0.8057728803    0.3179968194         -0.0042
C513       C    0.3536477686    0.7951482553    0.2926043637         -0.0042
H514       H    0.3373723557    0.7518702452    0.2880397395         -0.0042
H515       H    0.3447241253    0.7706255597    0.2555421344         -0.0042
C516       C    0.2879505365    0.7588743213    0.2575274989         -0.0042
H517       H    0.3200989446    0.7959733992    0.3379922205         -0.0042
H518       H    0.3635378488    0.7851506555    0.3120564219         -0.0042
H519       H    0.3709133267    0.8039465124    0.2795897136         -0.0042
C520       C    0.2934759814    0.7833014873    0.3017698366         -0.0042
H521       H    0.2711985115    0.7891519880    0.2996298747         -0.0042
H522       H    0.2940200386    0.7627894593    0.3140198211         -0.0042
C523       C    0.2740095043    0.7403802492    0.2465779639         -0.0042
C476       C    0.5725611360    0.5690890102    0.8008333780         -0.0042
H477       H    0.5956905707    0.5337416102    0.7882223263         -0.0042
C478       C    0.5572388916    0.5518054500    0.8219907535         -0.0042
C479       C    0.5552188047    0.5719645063    0.7724686016         -0.0042
H480       H    0.5352168727    0.5820212008    0.7754190215         -0.0042
H481       H    0.5496822625    0.5508490313    0.7644836121         -0.0042
C482       C    0.5721897359    0.5898622756    0.7504743887         -0.0042
H483       H    0.5747491408    0.5772839085    0.7319952332         -0.0042
H484       H    0.5602911338    0.6084700485    0.7429119887         -0.0042
C485       C    0.5467184243    0.5368454957    0.8400292766         -0.0042
C486       C    0.5968402511    0.6167627463    0.7892283273         -0.0042
C487       C    0.6013582747    0.5994660949    0.7635254448         -0.0042
C488       C    0.6002859367    0.5551928352    0.7957726093         -0.0042
C489       C    0.5799065020    0.5989059328    0.8111646285         -0.0042
H490       H    0.6174329066    0.6238993355    0.7991265375         -0.0042
H491       H    0.5854091351    0.6358871389    0.7824196742         -0.0042
C492       C    0.6179797305    0.6162230104    0.7430158856         -0.0042
H493       H    0.6132724174    0.5528931909    0.8157789593         -0.0042
H494       H    0.5924255495    0.5975321749    0.8315149190         -0.0042
H495       H    0.5603753208    0.6094829838    0.8148426046         -0.0042
C496       C    0.6171655206    0.5730043482    0.7738984183         -0.0042
H497       H    0.6206216315    0.5600646170    0.7558922668         -0.0042
H498       H    0.6381914995    0.5792055789    0.7834760300         -0.0042
C499       C    0.6327243654    0.6295771614    0.7269940408         -0.0042
C452       C    0.5703898719    0.7962651362    0.5591394385         -0.0042
H453       H    0.5672204711    0.7622153159    0.5299190902         -0.0042
C454       C    0.5528582434    0.8147432155    0.5406411220         -0.0042
C455       C    0.6020926276    0.8027858391    0.5552408906         -0.0042
H456       H    0.6079054527    0.8248776835    0.5602126018         -0.0042
H457       H    0.6068600541    0.8005043455    0.5330063599         -0.0042
C458       C    0.6199669034    0.7825800615    0.5746598796         -0.0042
H459       H    0.6332627048    0.7706585426    0.5616880357         -0.0042
H460       H    0.6343252879    0.7950210844    0.5889078732         -0.0042
C461       C    0.5370444664    0.8280541913    0.5252781527         -0.0042
C462       C    0.5824863648    0.7794264025    0.6097164227         -0.0042
C463       C    0.6007096271    0.7619852768    0.5920985908         -0.0042
C464       C    0.5632152943    0.7652957287    0.5522074900         -0.0042
C465       C    0.5646603480    0.7995847111    0.5903408237         -0.0042
H466       H    0.5683461545    0.7652153228    0.6224268763         -0.0042
H467       H    0.5961183215    0.7918159254    0.6246370239         -0.0042
C468       C    0.6171334862    0.7424082786    0.6104661486         -0.0042
H469       H    0.5405566534    0.7599273821    0.5548823149         -0.0042
H470       H    0.5420277485    0.7949829204    0.5938161033         -0.0042
H471       H    0.5697700038    0.8216131562    0.5959873003         -0.0042
C472       C    0.5809938964    0.7452014882    0.5715317373         -0.0042
H473       H    0.5935022520    0.7325314813    0.5584738664         -0.0042
H474       H    0.5668157753    0.7302625124    0.5834262940         -0.0042
C475       C    0.6294473768    0.7255143971    0.6254982808         -0.0042
C428       C    0.7825643042    0.5688570313    0.5672531893         -0.0042
H429       H    0.8030131307    0.6094930403    0.5544327282         -0.0042
C430       C    0.8005261789    0.5527799271    0.5507668052         -0.0042
C431       C    0.7544136319    0.5751914761    0.5509484128         -0.0042
H432       H    0.7427040535    0.5552276869    0.5458120412         -0.0042
H433       H    0.7584550598    0.5870346676    0.5307416141         -0.0042
C434       C    0.7362036831    0.5926238261    0.5687086649         -0.0042
H435       H    0.7315573553    0.6127848176    0.5569732019         -0.0042
H436       H    0.7157887306    0.5809885866    0.5720533497         -0.0042
C437       C    0.8169986505    0.5408536006    0.5381892295         -0.0042
C438       C    0.7578538282    0.5698473431    0.6129676393         -0.0042
C439       C    0.7516696114    0.5984249236    0.5973979768         -0.0042
C440       C    0.7981031196    0.5971629040    0.5741578789         -0.0042
C441       C    0.7760162229    0.5524589078    0.5952450536         -0.0042
H442       H    0.7690442012    0.5733109721    0.6336416214         -0.0042
H443       H    0.7378587761    0.5577643932    0.6171608977         -0.0042
C444       C    0.7349748045    0.6151722520    0.6145174931         -0.0042
H445       H    0.8184165005    0.5933215036    0.5859546271         -0.0042
H446       H    0.7958595659    0.5476350062    0.6074699840         -0.0042
H447       H    0.7647077813    0.5320654256    0.5909553363         -0.0042
C448       C    0.7799866886    0.6144954967    0.5918299344         -0.0042
H449       H    0.7762314934    0.6351006050    0.5805394556         -0.0042
H450       H    0.7916545715    0.6189079759    0.6120531424         -0.0042
C451       C    0.7225009891    0.6292871434    0.6292048033         -0.0042
loop_
_geom_bond_atom_site_label_1
_geom_bond_atom_site_label_2
_geom_bond_distance
_geom_bond_site_symmetry_2
_ccdc_geom_bond_type
B1           O3 1.473       .   D
B1           O2 1.471       .   S
B1         C475 1.649       .   S
O2         Si34 1.751       .   S
O3         Si36 1.753       .   S
C4          C35 1.538       .   S
C4           H7 1.112       .   S
C4           H8 1.112       .   S
C4           H6 1.111       .   S
C5          H10 1.112       .   S
C5          H11 1.111       .   S
C5           H9 1.112       .   S
C5          C37 1.537       .   S
B12         O13 1.471       .   D
B12         O14 1.473       .   S
B12        C451 1.714       .   S
O13        Si34 1.751       .   S
O14        Si36 1.753       .   S
C15         H17 1.111       .   S
C15         H18 1.112       .   S
C15         H19 1.112       .   S
C15         C35 1.538       .   S
C16         H20 1.112       .   S
C16         H21 1.112       .   S
C16         C37 1.537       .   S
C16         H22 1.111       .   S
B23         O24 1.471       .   D
B23         O25 1.473       .   S
B23        C499 1.543       .   S
O24        Si34 1.751       .   S
O25        Si36 1.753       .   S
C26         H30 1.112       .   S
C26         H28 1.111       .   S
C26         C35 1.538       .   S
C26         H29 1.112       .   S
C27         H31 1.112       .   S
C27         H33 1.111       .   S
C27         C37 1.537       .   S
C27         H32 1.112       .   S
Si34        C35 1.890       .   S
Si36        C37 1.890       .   S
B38         O40 1.473       .   D
B38         O39 1.471       .   S
B38        C523 1.491       .   S
O39        Si71 1.751       .   S
O40        Si73 1.753       .   S
C41         C72 1.538       .   S
C41         H44 1.112       .   S
C41         H45 1.112       .   S
C41         H43 1.111       .   S
C42         H47 1.112       .   S
C42         H48 1.111       .   S
C42         H46 1.112       .   S
C42         C74 1.537       .   S
B49         O50 1.471       .   D
B49         O51 1.473       .   S
B49        C533 1.639       .   S
O50        Si71 1.751       .   S
O51        Si73 1.753       .   S
C52         H54 1.111       .   S
C52         H55 1.112       .   S
C52         H56 1.112       .   S
C52         C72 1.538       .   S
C53         H57 1.112       .   S
C53         H58 1.112       .   S
C53         C74 1.537       .   S
C53         H59 1.111       .   S
B60         O61 1.471       .   D
B60         O62 1.473       .   S
B60        C557 1.666       .   S
O61        Si71 1.751       .   S
O62        Si73 1.753       .   S
C63         H67 1.112       .   S
C63         H65 1.111       .   S
C63         C72 1.538       .   S
C63         H66 1.112       .   S
C64         H68 1.112       .   S
C64         H70 1.111       .   S
C64         C74 1.537       .   S
C64         H69 1.112       .   S
Si71        C72 1.890       .   S
Si73        C74 1.890       .   S
B75         O77 1.473       .   D
B75         O76 1.471       .   S
B75        C643 1.529       .   S
O76       Si108 1.751       .   S
O77       Si110 1.753       .   S
C78        C109 1.538       .   S
C78         H81 1.112       .   S
C78         H82 1.112       .   S
C78         H80 1.111       .   S
C79         H84 1.112       .   S
C79         H85 1.111       .   S
C79         H83 1.112       .   S
C79        C111 1.537       .   S
B86         O87 1.471       .   D
B86         O88 1.473       .   S
B86        C619 1.567       .   S
O87       Si108 1.751       .   S
O88       Si110 1.753       .   S
C89         H91 1.111       .   S
C89         H92 1.112       .   S
C89         H93 1.112       .   S
C89        C109 1.538       .   S
C90         H94 1.112       .   S
C90         H95 1.112       .   S
C90        C111 1.537       .   S
C90         H96 1.111       .   S
B97         O98 1.471       .   D
B97         O99 1.473       .   S
B97        C581 1.561       .   S
O98       Si108 1.751       .   S
O99       Si110 1.753       .   S
C100       H104 1.112       .   S
C100       H102 1.111       .   S
C100       C109 1.538       .   S
C100       H103 1.112       .   S
C101       H105 1.112       .   S
C101       H107 1.111       .   S
C101       C111 1.537       .   S
C101       H106 1.112       .   S
Si108      C109 1.890       .   S
Si110      C111 1.890       .   S
B112       O114 1.473       .   D
B112       O113 1.471       .   S
B112       C667 1.686       .   S
O113      Si145 1.751       .   S
O114      Si147 1.753       .   S
C115       C146 1.538       .   S
C115       H118 1.112       .   S
C115       H119 1.112       .   S
C115       H117 1.111       .   S
C116       H121 1.112       .   S
C116       H122 1.111       .   S
C116       H120 1.112       .   S
C116       C148 1.537       .   S
B123       O124 1.471       .   D
B123       O125 1.473       .   S
B123       C677 1.497       .   S
O124      Si145 1.751       .   S
O125      Si147 1.753       .   S
C126       H128 1.111       .   S
C126       H129 1.112       .   S
C126       H130 1.112       .   S
C126       C146 1.538       .   S
C127       H131 1.112       .   S
C127       H132 1.112       .   S
C127       C148 1.537       .   S
C127       H133 1.111       .   S
B134       O135 1.471       .   D
B134       O136 1.473       .   S
B134       C701 1.715       .   S
O135      Si145 1.751       .   S
O136      Si147 1.753       .   S
C137       H141 1.112       .   S
C137       H139 1.111       .   S
C137       C146 1.538       .   S
C137       H140 1.112       .   S
C138       H142 1.112       .   S
C138       H144 1.111       .   S
C138       C148 1.537       .   S
C138       H143 1.112       .   S
Si145      C146 1.890       .   S
Si147      C148 1.890       .   S
C149       C150 1.408       .   S
C149       N184 1.361       .   D
C149       C201 1.475       .   S
C150       C151 1.401       .   D
C150       H204 1.083       .   S
C151       C152 1.400       .   S
C151       H205 1.083       .   S
C153       C152 1.407       .   D
C160       C152 1.404       .   S
C153       C154 1.406       .   S
H206       C153 1.083       .   S
C154       C155 1.405       .   D
C154       H207 1.083       .   S
C155       C156 1.406       .   S
C155       C159 1.404       .   S
C156       H208 1.083       .   S
C156       C157 1.406       .   D
C157       C158 1.403       .   S
C157       H209 1.083       .   S
C158       N185 1.355       .   D
C158       C162 1.462       .   S
C159       C160 1.413       .   D
C159       N185 1.357       .   S
N184       C160 1.367       .   S
C161       H210 1.083       .   S
C161       C198 1.476       .   S
N188       C161 1.299       .   D
C162       C163 1.399       .   D
C162       C167 1.400       .   S
C163       C164 1.396       .   S
C163       H211 1.083       .   S
C164       C165 1.404       .   D
C164       H212 1.083       .   S
C165       C168 1.473       .   S
C165       C166 1.406       .   S
C166       C167 1.397       .   D
C166       H213 1.083       .   S
C167       H214 1.083       .   S
C168       H215 1.082       .   S
C168       N189 1.300       .   D
C169       C232 1.467       .   S
C169       N186 1.357       .   D
C169       C170 1.405       .   S
C170       C171 1.403       .   D
C170       H216 1.083       .   S
C171       H217 1.083       .   S
C171       C172 1.403       .   S
C172       C180 1.404       .   D
C173       C172 1.405       .   S
C173       C174 1.404       .   D
C173       H218 1.083       .   S
C174       H219 1.083       .   S
C175       C174 1.406       .   S
C175       C176 1.401       .   S
C175       C179 1.405       .   D
C176       C177 1.402       .   D
C176       H220 1.083       .   S
C177       H221 1.083       .   S
C177       C178 1.406       .   S
C178       N187 1.361       .   D
C178       C192 1.470       .   S
C179       C180 1.414       .   S
C179       N187 1.364       .   S
C180       N186 1.361       .   S
C181       H222 1.083       .   S
C181       C235 1.474       .   S
C181       N190 1.300       .   D
C182       N191 1.300       .   D
C182       C195 1.473       .   S
C182       H223 1.084       .   S
Cu183      N186 1.903       .   S
Cu183      N187 1.922       .   S
Cu183      N185 1.902       .   S
N184      Cu183 1.924       .   S
N188       C691 1.497   1_655   S
N189       C547 1.639   1_655   S
N190       C437 1.714       .   S
N191       C595 1.561       .   S
C192       C197 1.400       .   D
C193       C192 1.403       .   S
C193       H224 1.084       .   S
C193       C194 1.395       .   D
C194       C195 1.405       .   S
C194       H225 1.083       .   S
C196       C195 1.404       .   D
C196       H226 1.083       .   S
C196       C197 1.397       .   S
C197       H227 1.079       .   S
C198       C203 1.407       .   S
C198       C199 1.403       .   D
C199       C200 1.397       .   S
C199       H228 1.083       .   S
C200       C201 1.404       .   D
C200       H229 1.083       .   S
C201       C202 1.400       .   S
C202       H230 1.077       .   S
C202       C203 1.397       .   D
C203       H231 1.083       .   S
C232       C233 1.398       .   S
C237       C232 1.474       .   D
C233       C234 1.402       .   D
C233       H238 1.083       .   S
C234       H239 1.083       .   S
C235       C234 1.410       .   S
C235       C236 1.402       .   D
C236       H240 1.084       .   S
C236       C237 1.389       .   S
C237       H241 1.083       .   S
C242       C243 1.408       .   S
C242       N277 1.361       .   D
C242       C294 1.475       .   S
C243       C244 1.401       .   D
C243       H297 1.083       .   S
C244       C245 1.400       .   S
C244       H298 1.083       .   S
C246       C245 1.407       .   D
C253       C245 1.404       .   S
C246       C247 1.406       .   S
H299       C246 1.083       .   S
C247       C248 1.405       .   D
C247       H300 1.083       .   S
C248       C249 1.406       .   S
C248       C252 1.404       .   S
C249       H301 1.083       .   S
C249       C250 1.406       .   D
C250       C251 1.403       .   S
C250       H302 1.083       .   S
C251       N278 1.355       .   D
C251       C255 1.462       .   S
C252       C253 1.413       .   D
C252       N278 1.357       .   S
N277       C253 1.367       .   S
C254       H303 1.083       .   S
C254       C291 1.476       .   S
N281       C254 1.299       .   D
C255       C256 1.399       .   D
C255       C260 1.400       .   S
C256       C257 1.396       .   S
C256       H304 1.083       .   S
C257       C258 1.404       .   D
C257       H305 1.083       .   S
C258       C261 1.473       .   S
C258       C259 1.406       .   S
C259       C260 1.397       .   D
C259       H306 1.083       .   S
C260       H307 1.083       .   S
C261       H308 1.082       .   S
C261       N282 1.300       .   D
C262       C325 1.467       .   S
C262       N279 1.357       .   D
C262       C263 1.405       .   S
C263       C264 1.403       .   D
C263       H309 1.083       .   S
C264       H310 1.083       .   S
C264       C265 1.403       .   S
C265       C273 1.404       .   D
C266       C265 1.405       .   S
C266       C267 1.404       .   D
C266       H311 1.083       .   S
C267       H312 1.083       .   S
C268       C267 1.406       .   S
C268       C269 1.401       .   S
C268       C272 1.405       .   D
C269       C270 1.402       .   D
C269       H313 1.083       .   S
C270       H314 1.083       .   S
C270       C271 1.406       .   S
C271       N280 1.361       .   D
C271       C285 1.470       .   S
C272       C273 1.414       .   S
C272       N280 1.364       .   S
C273       N279 1.361       .   S
C274       H315 1.083       .   S
C274       C328 1.474       .   S
C274       N283 1.300       .   D
C275       N284 1.300       .   D
C275       C288 1.473       .   S
C275       H316 1.084       .   S
Cu276      N279 1.903       .   S
Cu276      N280 1.922       .   S
Cu276      N278 1.902       .   S
N277      Cu276 1.924       .   S
N281       C509 1.491       .   S
N282       C461 1.649       .   S
N283       C715 1.715   1_565   S
N284       C605 1.567   1_565   S
C285       C290 1.400       .   D
C286       C285 1.403       .   S
C286       H317 1.084       .   S
C286       C287 1.395       .   D
C287       C288 1.405       .   S
C287       H318 1.083       .   S
C289       C288 1.404       .   D
C289       H319 1.083       .   S
C289       C290 1.397       .   S
C290       H320 1.079       .   S
C291       C296 1.407       .   S
C291       C292 1.403       .   D
C292       C293 1.397       .   S
C292       H321 1.083       .   S
C293       C294 1.404       .   D
C293       H322 1.083       .   S
C294       C295 1.400       .   S
C295       H323 1.077       .   S
C295       C296 1.397       .   D
C296       H324 1.083       .   S
C325       C326 1.398       .   S
C330       C325 1.474       .   D
C326       C327 1.402       .   D
C326       H331 1.083       .   S
C327       H332 1.083       .   S
C328       C327 1.410       .   S
C328       C329 1.402       .   D
C329       H333 1.084       .   S
C329       C330 1.389       .   S
C330       H334 1.083       .   S
C335       C336 1.408       .   S
C335       N370 1.361       .   D
C335       C387 1.475       .   S
C336       C337 1.401       .   D
C336       H390 1.083       .   S
C337       C338 1.400       .   S
C337       H391 1.083       .   S
C339       C338 1.407       .   D
C346       C338 1.404       .   S
C339       C340 1.406       .   S
H392       C339 1.083       .   S
C340       C341 1.405       .   D
C340       H393 1.083       .   S
C341       C342 1.406       .   S
C341       C345 1.404       .   S
C342       H394 1.083       .   S
C342       C343 1.406       .   D
C343       C344 1.403       .   S
C343       H395 1.083       .   S
C344       N371 1.355       .   D
C344       C348 1.462       .   S
C345       C346 1.413       .   D
C345       N371 1.357       .   S
N370       C346 1.367       .   S
C347       H396 1.083       .   S
C347       C384 1.476       .   S
N374       C347 1.299       .   D
C348       C349 1.399       .   D
C348       C353 1.400       .   S
C349       C350 1.396       .   S
C349       H397 1.083       .   S
C350       C351 1.404       .   D
C350       H398 1.083       .   S
C351       C354 1.473       .   S
C351       C352 1.406       .   S
C352       C353 1.397       .   D
C352       H399 1.083       .   S
C353       H400 1.083       .   S
C354       H401 1.082       .   S
C354       N375 1.300       .   D
C355       C418 1.467       .   S
C355       N372 1.357       .   D
C355       C356 1.405       .   S
C356       C357 1.403       .   D
C356       H402 1.083       .   S
C357       H403 1.083       .   S
C357       C358 1.403       .   S
C358       C366 1.404       .   D
C359       C358 1.405       .   S
C359       C360 1.404       .   D
C359       H404 1.083       .   S
C360       H405 1.083       .   S
C361       C360 1.406       .   S
C361       C362 1.401       .   S
C361       C365 1.405       .   D
C362       C363 1.402       .   D
C362       H406 1.083       .   S
C363       H407 1.083       .   S
C363       C364 1.406       .   S
C364       N373 1.361       .   D
C364       C378 1.470       .   S
C365       C366 1.414       .   S
C365       N373 1.364       .   S
C366       N372 1.361       .   S
C367       H408 1.083       .   S
C367       C421 1.474       .   S
C367       N376 1.300       .   D
C368       N377 1.300       .   D
C368       C381 1.473       .   S
C368       H409 1.084       .   S
Cu369      N372 1.903       .   S
Cu369      N373 1.922       .   S
Cu369      N371 1.902       .   S
N370      Cu369 1.924       .   S
N374       C629 1.529   1_556   S
N375       C571 1.666   1_556   S
N376       C653 1.686       .   S
N377       C485 1.543       .   S
C378       C383 1.400       .   D
C379       C378 1.403       .   S
C379       H410 1.084       .   S
C379       C380 1.395       .   D
C380       C381 1.405       .   S
C380       H411 1.083       .   S
C382       C381 1.404       .   D
C382       H412 1.083       .   S
C382       C383 1.397       .   S
C383       H413 1.079       .   S
C384       C389 1.407       .   S
C384       C385 1.403       .   D
C385       C386 1.397       .   S
C385       H414 1.083       .   S
C386       C387 1.404       .   D
C386       H415 1.083       .   S
C387       C388 1.400       .   S
C388       H416 1.077       .   S
C388       C389 1.397       .   D
C389       H417 1.083       .   S
C418       C419 1.398       .   S
C423       C418 1.474       .   D
C419       C420 1.402       .   D
C419       H424 1.083       .   S
C420       H425 1.083       .   S
C421       C420 1.410       .   S
C421       C422 1.402       .   D
C422       H426 1.084       .   S
C422       C423 1.389       .   S
C423       H427 1.083       .   S
C692       C704 1.552       .   S
C692       C705 1.552       .   S
C692       C694 1.473       .   S
C692       C695 1.552       .   S
H693       C704 1.114       .   S
C694       C701 1.204       .   T
C695       H696 1.113       .   S
C695       H697 1.113       .   S
C695       C698 1.556       .   S
C698       C703 1.553       .   S
C698       H699 1.113       .   S
C698       H700 1.113       .   S
C702       C703 1.552       .   S
C702       C705 1.552       .   S
C702       H706 1.114       .   S
C702       H707 1.113       .   S
C703       C708 1.473       .   S
C703       C712 1.551       .   S
C704       H709 1.114       .   S
C704       C712 1.547       .   S
C705       H710 1.114       .   S
C705       H711 1.113       .   S
C708       C715 1.205       .   T
C712       H713 1.114       .   S
C712       H714 1.114       .   S
C668       C680 1.552       .   S
C668       C681 1.552       .   S
C668       C670 1.473       .   S
C668       C671 1.552       .   S
H669       C680 1.114       .   S
C670       C677 1.204       .   T
C671       H672 1.113       .   S
C671       H673 1.113       .   S
C671       C674 1.556       .   S
C674       C679 1.553       .   S
C674       H675 1.113       .   S
C674       H676 1.113       .   S
C678       C679 1.552       .   S
C678       C681 1.552       .   S
C678       H682 1.114       .   S
C678       H683 1.113       .   S
C679       C684 1.473       .   S
C679       C688 1.551       .   S
C680       H685 1.114       .   S
C680       C688 1.547       .   S
C681       H686 1.114       .   S
C681       H687 1.113       .   S
C684       C691 1.205       .   T
C688       H689 1.114       .   S
C688       H690 1.114       .   S
C644       C656 1.552       .   S
C644       C657 1.552       .   S
C644       C646 1.473       .   S
C644       C647 1.552       .   S
H645       C656 1.114       .   S
C646       C653 1.204       .   T
C647       H648 1.113       .   S
C647       H649 1.113       .   S
C647       C650 1.556       .   S
C650       C655 1.553       .   S
C650       H651 1.113       .   S
C650       H652 1.113       .   S
C654       C655 1.552       .   S
C654       C657 1.552       .   S
C654       H658 1.114       .   S
C654       H659 1.113       .   S
C655       C660 1.473       .   S
C655       C664 1.551       .   S
C656       H661 1.114       .   S
C656       C664 1.547       .   S
C657       H662 1.114       .   S
C657       H663 1.113       .   S
C660       C667 1.205       .   T
C664       H665 1.114       .   S
C664       H666 1.114       .   S
C620       C632 1.552       .   S
C620       C633 1.552       .   S
C620       C622 1.473       .   S
C620       C623 1.552       .   S
H621       C632 1.114       .   S
C622       C629 1.204       .   T
C623       H624 1.113       .   S
C623       H625 1.113       .   S
C623       C626 1.556       .   S
C626       C631 1.553       .   S
C626       H627 1.113       .   S
C626       H628 1.113       .   S
C630       C631 1.552       .   S
C630       C633 1.552       .   S
C630       H634 1.114       .   S
C630       H635 1.113       .   S
C631       C636 1.473       .   S
C631       C640 1.551       .   S
C632       H637 1.114       .   S
C632       C640 1.547       .   S
C633       H638 1.114       .   S
C633       H639 1.113       .   S
C636       C643 1.205       .   T
C640       H641 1.114       .   S
C640       H642 1.114       .   S
C596       C608 1.552       .   S
C596       C609 1.552       .   S
C596       C598 1.473       .   S
C596       C599 1.552       .   S
H597       C608 1.114       .   S
C598       C605 1.204       .   T
C599       H600 1.113       .   S
C599       H601 1.113       .   S
C599       C602 1.556       .   S
C602       C607 1.553       .   S
C602       H603 1.113       .   S
C602       H604 1.113       .   S
C606       C607 1.552       .   S
C606       C609 1.552       .   S
C606       H610 1.114       .   S
C606       H611 1.113       .   S
C607       C612 1.473       .   S
C607       C616 1.551       .   S
C608       H613 1.114       .   S
C608       C616 1.547       .   S
C609       H614 1.114       .   S
C609       H615 1.113       .   S
C612       C619 1.205       .   T
C616       H617 1.114       .   S
C616       H618 1.114       .   S
C572       C584 1.552       .   S
C572       C585 1.552       .   S
C572       C574 1.473       .   S
C572       C575 1.552       .   S
H573       C584 1.114       .   S
C574       C581 1.204       .   T
C575       H576 1.113       .   S
C575       H577 1.113       .   S
C575       C578 1.556       .   S
C578       C583 1.553       .   S
C578       H579 1.113       .   S
C578       H580 1.113       .   S
C582       C583 1.552       .   S
C582       C585 1.552       .   S
C582       H586 1.114       .   S
C582       H587 1.113       .   S
C583       C588 1.473       .   S
C583       C592 1.551       .   S
C584       H589 1.114       .   S
C584       C592 1.547       .   S
C585       H590 1.114       .   S
C585       H591 1.113       .   S
C588       C595 1.205       .   T
C592       H593 1.114       .   S
C592       H594 1.114       .   S
C548       C560 1.552       .   S
C548       C561 1.552       .   S
C548       C550 1.473       .   S
C548       C551 1.552       .   S
H549       C560 1.114       .   S
C550       C557 1.204       .   T
C551       H552 1.113       .   S
C551       H553 1.113       .   S
C551       C554 1.556       .   S
C554       C559 1.553       .   S
C554       H555 1.113       .   S
C554       H556 1.113       .   S
C558       C559 1.552       .   S
C558       C561 1.552       .   S
C558       H562 1.114       .   S
C558       H563 1.113       .   S
C559       C564 1.473       .   S
C559       C568 1.551       .   S
C560       H565 1.114       .   S
C560       C568 1.547       .   S
C561       H566 1.114       .   S
C561       H567 1.113       .   S
C564       C571 1.205       .   T
C568       H569 1.114       .   S
C568       H570 1.114       .   S
C524       C536 1.552       .   S
C524       C537 1.552       .   S
C524       C526 1.473       .   S
C524       C527 1.552       .   S
H525       C536 1.114       .   S
C526       C533 1.204       .   T
C527       H528 1.113       .   S
C527       H529 1.113       .   S
C527       C530 1.556       .   S
C530       C535 1.553       .   S
C530       H531 1.113       .   S
C530       H532 1.113       .   S
C534       C535 1.552       .   S
C534       C537 1.552       .   S
C534       H538 1.114       .   S
C534       H539 1.113       .   S
C535       C540 1.473       .   S
C535       C544 1.551       .   S
C536       H541 1.114       .   S
C536       C544 1.547       .   S
C537       H542 1.114       .   S
C537       H543 1.113       .   S
C540       C547 1.205       .   T
C544       H545 1.114       .   S
C544       H546 1.114       .   S
C500       C512 1.552       .   S
C500       C513 1.552       .   S
C500       C502 1.473       .   S
C500       C503 1.552       .   S
H501       C512 1.114       .   S
C502       C509 1.204       .   T
C503       H504 1.113       .   S
C503       H505 1.113       .   S
C503       C506 1.556       .   S
C506       C511 1.553       .   S
C506       H507 1.113       .   S
C506       H508 1.113       .   S
C510       C511 1.552       .   S
C510       C513 1.552       .   S
C510       H514 1.114       .   S
C510       H515 1.113       .   S
C511       C516 1.473       .   S
C511       C520 1.551       .   S
C512       H517 1.114       .   S
C512       C520 1.547       .   S
C513       H518 1.114       .   S
C513       H519 1.113       .   S
C516       C523 1.205       .   T
C520       H521 1.114       .   S
C520       H522 1.114       .   S
C476       C488 1.552       .   S
C476       C489 1.552       .   S
C476       C478 1.473       .   S
C476       C479 1.552       .   S
H477       C488 1.114       .   S
C478       C485 1.204       .   T
C479       H480 1.113       .   S
C479       H481 1.113       .   S
C479       C482 1.556       .   S
C482       C487 1.553       .   S
C482       H483 1.113       .   S
C482       H484 1.113       .   S
C486       C487 1.552       .   S
C486       C489 1.552       .   S
C486       H490 1.114       .   S
C486       H491 1.113       .   S
C487       C492 1.473       .   S
C487       C496 1.551       .   S
C488       H493 1.114       .   S
C488       C496 1.547       .   S
C489       H494 1.114       .   S
C489       H495 1.113       .   S
C492       C499 1.205       .   T
C496       H497 1.114       .   S
C496       H498 1.114       .   S
C452       C464 1.552       .   S
C452       C465 1.552       .   S
C452       C454 1.473       .   S
C452       C455 1.552       .   S
H453       C464 1.114       .   S
C454       C461 1.204       .   T
C455       H456 1.113       .   S
C455       H457 1.113       .   S
C455       C458 1.556       .   S
C458       C463 1.553       .   S
C458       H459 1.113       .   S
C458       H460 1.113       .   S
C462       C463 1.552       .   S
C462       C465 1.552       .   S
C462       H466 1.114       .   S
C462       H467 1.113       .   S
C463       C468 1.473       .   S
C463       C472 1.551       .   S
C464       H469 1.114       .   S
C464       C472 1.547       .   S
C465       H470 1.114       .   S
C465       H471 1.113       .   S
C468       C475 1.205       .   T
C472       H473 1.114       .   S
C472       H474 1.114       .   S
C428       C440 1.552       .   S
C428       C441 1.552       .   S
C428       C430 1.473       .   S
C428       C431 1.552       .   S
H429       C440 1.114       .   S
C430       C437 1.204       .   T
C431       H432 1.113       .   S
C431       H433 1.113       .   S
C431       C434 1.556       .   S
C434       C439 1.553       .   S
C434       H435 1.113       .   S
C434       H436 1.113       .   S
C438       C439 1.552       .   S
C438       C441 1.552       .   S
C438       H442 1.114       .   S
C438       H443 1.113       .   S
C439       C444 1.473       .   S
C439       C448 1.551       .   S
C440       H445 1.114       .   S
C440       C448 1.547       .   S
C441       H446 1.114       .   S
C441       H447 1.113       .   S
C444       C451 1.205       .   T
C448       H449 1.114       .   S
C448       H450 1.114       .   S
