data_nfa_v1-4c_V_1_Ch_1-1B_2CF3_Ch
_audit_creation_date              2023-05-31
_audit_creation_method            'newmof'
_symmetry_space_group_name_H-M    'P1'
_symmetry_Int_Tables_number       1
_symmetry_cell_setting            triclinic
loop_
_symmetry_equiv_pos_as_xyz
  x,y,z
_cell_length_a                    30.64638783001814
_cell_length_b                    25.887152889223128
_cell_length_c                    25.811254831105543
_cell_angle_alpha                 90.00612319817384
_cell_angle_beta                  89.98332717788476
_cell_angle_gamma                 90.00788159659318
loop_
_atom_site_label
_atom_site_type_symbol
_atom_site_fract_x
_atom_site_fract_y
_atom_site_fract_z
_atom_site_charge
O1         O    0.1505242810    0.2982830556    0.3784059486          -0.717
O2         O    0.1290697430    0.4140948729    0.3023388845         -0.7191
O3         O    0.1930578013    0.3816998374    0.3585088177         -0.7177
O4         O    0.0865659291    0.3305173679    0.3223443223         -0.7178
O5         O    0.0570414120    0.3677765237    0.3918240134         -0.7174
O6         O    0.1633420533    0.4199908568    0.4273158987         -0.7176
O7         O    0.0990842035    0.4515202305    0.3714570259          -0.717
O8         O    0.1213289682    0.3360864268    0.4477911931         -0.7189
V9         V    0.1405219686    0.3552509670    0.3387012297          1.3524
V10        V    0.1094805337    0.3947477749    0.4113009118          1.3517
C11        C    0.1396975481    0.2972155925    0.4262774049          0.7754
C12        C    0.1103022564    0.4527863043    0.3237310439           0.776
C13        C    0.1965833008    0.4097783600    0.3990991794          0.7747
C14        C    0.0534168947    0.3402197432    0.3508923718          0.7743
O15        O    0.0648658236    0.0842887807    0.5913603637          -0.717
O16        O    0.0859363977    0.0080181456    0.7073294800         -0.7191
O17        O    0.0220809146    0.0642117486    0.6747902000         -0.7177
O18        O    0.1286921351    0.0282037589    0.6237387119         -0.7178
O19        O    0.1581596964    0.0973149402    0.6614606491         -0.7174
O20        O    0.0517362895    0.1326484908    0.7135454203         -0.7176
O21        O    0.1158642482    0.0767677127    0.7452186110          -0.717
O22        O    0.0940025661    0.1533042995    0.6296265266         -0.7189
V23        V    0.0746776432    0.0444913025    0.6483956144          1.3524
V24        V    0.1056579559    0.1167037420    0.6883783678          1.3517
C25        C    0.0757295224    0.1320103764    0.5904971185          0.7754
C26        C    0.1046087698    0.0291909428    0.7462800601           0.776
C27        C    0.0185043082    0.1045897506    0.7030783031          0.7747
C28        C    0.1618335919    0.0565947342    0.6336950105          0.7743
O29        O    0.8030290918    0.2057741196    0.9840155977          -0.717
O30        O    0.8742452324    0.1715792668    0.8762679012         -0.7191
O31        O    0.8024964072    0.1352393248    0.9137275822         -0.7177
O32        O    0.8746790070    0.2421600520    0.9467077623         -0.7178
O33        O    0.9124988007    0.1903413957    0.9989678909         -0.7174
O34        O    0.8409505356    0.0831132295    0.9650320109         -0.7176
O35        O    0.9125514467    0.1200485817    0.9283245113          -0.717
O36        O    0.8407989795    0.1534520340    0.0358272359         -0.7189
V37        V    0.8376970325    0.1899471467    0.9288980637          1.3524
V38        V    0.8776187364    0.1354725258    0.9833217446          1.3517
C39        C    0.8095694686    0.1854417926    0.0285255754          0.7754
C40        C    0.9057496525    0.1399733523    0.8836990864           0.776
C41        C    0.8093067791    0.0906773830    0.9335955951          0.7747
C42        C    0.9060112361    0.2347496122    0.9786165299          0.7743
O43        O    0.6511264472    0.7977621050    0.8793987309          -0.717
O44        O    0.6298189075    0.9134549516    0.8030916481         -0.7191
O45        O    0.6937347948    0.8811015193    0.8594013461         -0.7177
O46        O    0.5872400599    0.8299549842    0.8231976727         -0.7178
O47        O    0.5576794556    0.8673695788    0.8925716240         -0.7174
O48        O    0.6639842647    0.9195469270    0.9281005488         -0.7176
O49        O    0.5997977164    0.9510355274    0.8721031664          -0.717
O50        O    0.6218955039    0.8357204253    0.9486776463         -0.7189
V51        V    0.6411984732    0.8546667782    0.8395766415          1.3524
V52        V    0.6101197181    0.8943261868    0.9120645566          1.3517
C53        C    0.6402564967    0.7967926767    0.9272584980          0.7754
C54        C    0.6110589935    0.9522034573    0.8243889981           0.776
C55        C    0.6972435142    0.9092509298    0.8999443523          0.7747
C56        C    0.5540723794    0.8397413793    0.8516862537          0.7743
O57        O    0.3017408385    0.7066795300    0.4833093870          -0.717
O58        O    0.3731981102    0.6727204660    0.3757118124         -0.7191
O59        O    0.3013794911    0.6362800130    0.4128835182         -0.7177
O60        O    0.3734602084    0.7431656417    0.4462893154         -0.7178
O61        O    0.4111824010    0.6912614186    0.4985634981         -0.7174
O62        O    0.3397381585    0.5840704433    0.4642033326         -0.7176
O63        O    0.4114070764    0.6211047983    0.4277845094          -0.717
O64        O    0.3394142340    0.6542727224    0.5351339555         -0.7189
V65        V    0.3365316569    0.6909724719    0.4282665302          1.3524
V66        V    0.3763518636    0.6364089551    0.4827054833          1.3517
C67        C    0.3081913563    0.6862641108    0.5277996173          0.7754
C68        C    0.4046955073    0.6411127805    0.3831772511           0.776
C69        C    0.3081599274    0.5916825856    0.4326858043          0.7747
C70        C    0.4047258539    0.7357061797    0.4782785468          0.7743
O71        O    0.5648897353    0.5851568590    0.0928072788          -0.717
O72        O    0.5855788165    0.5089388813    0.2089081371         -0.7191
O73        O    0.5219087679    0.5652994353    0.1761479371         -0.7177
O74        O    0.6285311478    0.5289048129    0.1254063615         -0.7178
O75        O    0.6580850087    0.5979617925    0.1631329535         -0.7174
O76        O    0.5516470547    0.6336824448    0.2149089811         -0.7176
O77        O    0.6155918495    0.5776329744    0.2468034710          -0.717
O78        O    0.5941115779    0.6541197708    0.1310773464         -0.7189
V79        V    0.5745088093    0.5453870164    0.1499082509          1.3524
V80        V    0.6055782622    0.6175428048    0.1898963544          1.3517
C81        C    0.5758619050    0.6328432957    0.0919230227          0.7754
C82        C    0.6042278679    0.5300927949    0.2478847793           0.776
C83        C    0.5183713877    0.6057174152    0.2043855094          0.7747
C84        C    0.6617179624    0.5572018385    0.1354184440          0.7743
O85        O    0.1505519551    0.8163508819    0.3263545626          -0.717
O86        O    0.1290210073    0.7006567692    0.4025967262         -0.7191
O87        O    0.1930611418    0.7329752120    0.3464097512         -0.7177
O88        O    0.0865416355    0.7841929945    0.3824329877         -0.7178
O89        O    0.0570752484    0.7468160824    0.3129973172         -0.7174
O90        O    0.1634028474    0.6945674767    0.2776482509         -0.7176
O91        O    0.0990932660    0.6631141378    0.3335226198          -0.717
O92        O    0.1214146446    0.7784299768    0.2570143985         -0.7237
V93        V    0.1405100430    0.7594446583    0.3661457131          1.3524
V94        V    0.1095293024    0.7198247663    0.2935928348          1.3517
C95        C    0.1397674538    0.8173391969    0.2784754940          0.7754
C96        C    0.1102691992    0.6619270621    0.3812567502           0.776
C97        C    0.1966200811    0.7048323258    0.3058667224          0.7747
C98        C    0.0534169483    0.7744377541    0.3538824134          0.7743
O99        O    0.0656694492    0.0296394627    0.1124778881          -0.717
O100       O    0.0866703164    0.1056667150    0.9963112751         -0.7191
O101       O    0.0227828719    0.0496436556    0.0291370334         -0.7177
O102       O    0.1295278147    0.0855542785    0.0798133404         -0.7178
O103       O    0.1588329833    0.0163243559    0.0421294486         -0.7174
O104       O    0.0522752253    0.9810860033    0.9904181077         -0.7176
O105       O    0.1164360462    0.0367972969    0.9584582020          -0.717
O106       O    0.0946430834    0.9605048187    0.0742505649         -0.7189
V107       V    0.0754503874    0.0693182060    0.0553430169          1.3524
V108       V    0.1062601229    0.9969803519    0.0153994635          1.3517
C109       C    0.0764635203    0.9819003967    0.1133949276          0.7754
C110       C    0.1052496687    0.0843918763    0.9573443598           0.776
C111       C    0.0191016003    0.0092218336    0.0009317445          0.7747
C112       C    0.1626112277    0.0570872811    0.0698113788          0.7743
O113       O    0.8026201753    0.9089824759    0.7214478776          -0.717
O114       O    0.8741231258    0.9430073503    0.8289397397         -0.7191
O115       O    0.8023548477    0.9795002150    0.7917553891         -0.7177
O116       O    0.8742891428    0.8724438574    0.7584807383         -0.7178
O117       O    0.9120828811    0.9242002310    0.7060936840         -0.7174
O118       O    0.8407854715    0.0315625146    0.7403217566         -0.7176
O119       O    0.9124032397    0.9944747290    0.7767543269          -0.717
O120       O    0.8403658023    0.9612422628    0.6695096239         -0.7189
V121       V    0.8374320794    0.9247260220    0.7764406542          1.3524
V122       V    0.8773274932    0.9791347092    0.7218829338          1.3517
C123       C    0.8090990255    0.9293130987    0.6769189629          0.7754
C124       C    0.9056638965    0.9745521548    0.8213997604           0.776
C125       C    0.8091965945    0.0240535611    0.7718734550          0.7747
C126       C    0.9055652287    0.8797998410    0.7264578062          0.7743
O127       O    0.3023880926    0.4080718384    0.2215293768          -0.717
O128       O    0.3734898729    0.4420840469    0.3293997892         -0.7191
O129       O    0.3017487144    0.4784282574    0.2919959532         -0.7177
O130       O    0.3740305007    0.3716818966    0.2587812007         -0.7178
O131       O    0.4118601564    0.4236798714    0.2066721081         -0.7174
O132       O    0.3402116877    0.5307320545    0.2408436608         -0.7176
O133       O    0.4118059678    0.4937941490    0.2774937311          -0.717
O134       O    0.3401671260    0.4605720456    0.1698700257         -0.7189
V135       V    0.3369986433    0.4238031714    0.2767045593          1.3524
V136       V    0.3769302769    0.4784652068    0.2224397371          1.3517
C137       C    0.3089527379    0.4285247016    0.1770745212          0.7754
C138       C    0.4049795357    0.4737482207    0.3220649350           0.776
C139       C    0.3085462816    0.5230487753    0.2722446294          0.7747
C140       C    0.4053848833    0.3792122637    0.2269073330          0.7743
O141       O    0.5644967676    0.5295139979    0.6136665129          -0.717
O142       O    0.5853707156    0.6058349751    0.4976615818         -0.7191
O143       O    0.5216038950    0.5495304976    0.5303332013         -0.7177
O144       O    0.6282346920    0.5857098244    0.5811558744         -0.7178
O145       O    0.6577283515    0.5166528624    0.5433601690         -0.7174
O146       O    0.5512836210    0.4811484234    0.4915038926         -0.7176
O147       O    0.6153241385    0.5371404176    0.4596977227          -0.717
O148       O    0.5936589379    0.4605522172    0.5753273198         -0.7189
V149       V    0.5742096912    0.5693353129    0.5566151612          1.3524
V150       V    0.6052166681    0.4971799184    0.5165549127          1.3517
C151       C    0.5754071443    0.4818104715    0.6144995668          0.7754
C152       C    0.6040219109    0.5846984901    0.4586673041           0.776
C153       C    0.5180359268    0.5091502644    0.5020475620          0.7747
C154       C    0.6613927242    0.5573755303    0.5711231769          0.7743
O155       O    0.6507595016    0.3164811083    0.8266636936          -0.717
O156       O    0.6295117033    0.2006710389    0.9028405588         -0.7191
O157       O    0.6934516657    0.2332136527    0.8466229307         -0.7177
O158       O    0.5868489595    0.2840992126    0.8827728625         -0.7178
O159       O    0.5574177006    0.2466872722    0.8133351497         -0.7174
O160       O    0.6638310192    0.1947698594    0.7778588061         -0.7176
O161       O    0.5996196483    0.1630917948    0.8337646791          -0.717
O162       O    0.6216584917    0.2785260549    0.7573208175         -0.7189
V163       V    0.6408582335    0.2595177913    0.8664222617          1.3524
V164       V    0.6099153577    0.2198607498    0.7938670034          1.3517
C165       C    0.6399442902    0.3174725941    0.7787944679          0.7754
C166       C    0.6108266113    0.1619027781    0.8814884936           0.776
C167       C    0.6970440252    0.2051100480    0.8060566485          0.7747
C168       C    0.5537272550    0.2742691341    0.8542432070          0.7743
O169       O    0.6629398159    0.9077467792    0.4852925626          -0.717
O170       O    0.5919345920    0.9416222300    0.3773038655         -0.7191
O171       O    0.6635736739    0.9781228938    0.4148605820         -0.7177
O172       O    0.5913993452    0.8712005736    0.4478880232         -0.7178
O173       O    0.5534260064    0.9230972384    0.4999501457         -0.7174
O174       O    0.6249678681    0.0303241617    0.4659648522         -0.7176
O175       O    0.5534754973    0.9932299483    0.4291618974          -0.717
O176       O    0.6250169884    0.9601459099    0.5369052776         -0.7189
V177       V    0.6283810156    0.9234122373    0.4300594137          1.3524
V178       V    0.5882990273    0.9779675263    0.4842745499          1.3517
C179       C    0.6562864945    0.9281728288    0.5297446505          0.7754
C180       C    0.5603901820    0.9732114699    0.3845941491           0.776
C181       C    0.6566862039    0.0227224444    0.4346201664          0.7747
C182       C    0.5599916150    0.8786499768    0.4797061235          0.7743
O183       O    0.4023732276    0.0278037145    0.0921528176          -0.717
O184       O    0.3816236695    0.1046565365    0.2078474317         -0.7191
O185       O    0.4451986922    0.0478592339    0.1755332401         -0.7177
O186       O    0.3388269162    0.0844916286    0.1243064677         -0.7178
O187       O    0.3089537412    0.0157444825    0.1622529121         -0.7174
O188       O    0.4151405360    0.9797917147    0.2145105396         -0.7176
O189       O    0.3512920454    0.0362751111    0.2459595980          -0.717
O190       O    0.3728309430    0.9591516976    0.1306433123         -0.7189
V191       V    0.3927317051    0.0678832648    0.1490454250          1.3524
V192       V    0.3613271210    0.9960547219    0.1892626650          1.3517
C193       C    0.3912510636    0.9801629415    0.0914493209          0.7754
C194       C    0.3628050326    0.0837688030    0.2468619858           0.776
C195       C    0.4485328004    0.0075584070    0.2039624465          0.7747
C196       C    0.3055237826    0.0563901541    0.1343449374          0.7743
O197       O    0.3152363054    0.8158542307    0.8803787879          -0.717
O198       O    0.3362289541    0.7002778677    0.8037322880         -0.7191
O199       O    0.2725065578    0.7325950432    0.8604220245         -0.7177
O200       O    0.3789296469    0.7836974415    0.8237981619         -0.7178
O201       O    0.4086705615    0.7461268958    0.8929498283         -0.7174
O202       O    0.3024346080    0.6939947130    0.9288959177         -0.7176
O203       O    0.3664292410    0.6625415235    0.8725189189          -0.717
O204       O    0.3446468737    0.7777404717    0.9494359375         -0.7189
V205       V    0.3250025282    0.7590115653    0.8403924943          1.3524
V206       V    0.3562692670    0.7191890099    0.9126460555          1.3517
C207       C    0.3262505535    0.8167258144    0.9281865485          0.7754
C208       C    0.3550239594    0.6614715775    0.8248582795           0.776
C209       C    0.2690987253    0.7043758930    0.9009247150          0.7747
C210       C    0.4121753365    0.7738253549    0.8521032329          0.7743
O211       O    0.8142481282    0.3161697942    0.3799476889          -0.717
O212       O    0.8353298415    0.2007049460    0.3031666692         -0.7191
O213       O    0.7716280438    0.2328299992    0.3599987773         -0.7177
O214       O    0.8779207511    0.2842049705    0.3232248779         -0.7178
O215       O    0.9078116084    0.2466450250    0.3922910978         -0.7174
O216       O    0.8017068369    0.1942412586    0.4283860252         -0.7176
O217       O    0.8656798697    0.1629805507    0.3718668834          -0.717
O218       O    0.8438094008    0.2780659625    0.4489195367         -0.7189
V219       V    0.8240552092    0.2593825974    0.3398962524          1.3524
V220       V    0.8554795368    0.2195715557    0.4120597129          1.3517
C221       C    0.8253224529    0.3170268986    0.4277361226          0.7754
C222       C    0.8542150239    0.1619240722    0.3242261133           0.776
C223       C    0.7683181754    0.2045696365    0.4004839649          0.7747
C224       C    0.9112188222    0.2743852032    0.3514613950          0.7743
O225       O    0.1636975157    0.4082554504    0.9847532781          -0.717
O226       O    0.0925803699    0.4422523710    0.8769069326         -0.7191
O227       O    0.1642405908    0.4787350123    0.9144244006         -0.7177
O228       O    0.0921360628    0.3717270953    0.9473877917         -0.7178
O229       O    0.0541915929    0.4235277881    0.9995756180         -0.7174
O230       O    0.1256626596    0.5308413842    0.9656556465         -0.7176
O231       O    0.0541500625    0.4937641654    0.9288908730          -0.717
O232       O    0.1258029581    0.4605592931    0.0364923732         -0.7189
V233       V    0.1290820813    0.4239839478    0.9295882065          1.3524
V234       V    0.0890299672    0.4784390170    0.9839356992          1.3517
C235       C    0.1570776263    0.4286129074    0.0292440261          0.7754
C236       C    0.0610310586    0.4738145837    0.8842847266           0.776
C237       C    0.1573549096    0.5233020020    0.9342586475          0.7747
C238       C    0.0607549106    0.3791136305    0.9792575766          0.7743
O239       O    0.9011625078    0.5283214742    0.5927660113          -0.717
O240       O    0.8804473966    0.6047263438    0.7087673615         -0.7191
O241       O    0.9441120249    0.5482834484    0.6760789889         -0.7177
O242       O    0.8375265507    0.5846556023    0.6252934085         -0.7178
O243       O    0.8079298947    0.5156711516    0.6631117183         -0.7174
O244       O    0.9143307091    0.4799746330    0.7149308708         -0.7176
O245       O    0.8503916230    0.5361052709    0.7467539526          -0.717
O246       O    0.8718976521    0.4594317465    0.6311276609         -0.7189
V247       V    0.8915314676    0.5681829468    0.6498150230          1.3524
V248       V    0.8604170352    0.4961039027    0.6898989661          1.3517
C249       C    0.8901732969    0.4806393671    0.5919447843          0.7754
C250       C    0.8617725007    0.5836412193    0.7477724100           0.776
C251       C    0.9476214949    0.5079065922    0.7043695026          0.7747
C252       C    0.8043247335    0.5563908251    0.6353438209          0.7743
O253       O    0.3144613840    0.2977634299    0.8245346458          -0.717
O254       O    0.3353653151    0.4132921322    0.9012834097         -0.7191
O255       O    0.2717261214    0.3810168072    0.8444702290         -0.7177
O256       O    0.3780716507    0.3298784362    0.8812385742         -0.7178
O257       O    0.4079392786    0.3674852904    0.8121578950         -0.7174
O258       O    0.3017801029    0.4196530244    0.7760682344         -0.7176
O259       O    0.3656917655    0.4510645087    0.8325686165          -0.717
O260       O    0.3439986888    0.3359134874    0.7555482606         -0.7189
V261       V    0.3241801869    0.3545813938    0.8645703151          1.3524
V262       V    0.3555795094    0.3944418600    0.7923915731          1.3517
C263       C    0.3255544025    0.2969182601    0.7767445173          0.7754
C264       C    0.3542080229    0.4521081802    0.8802110990           0.776
C265       C    0.2683945820    0.4092600778    0.8039786027          0.7747
C266       C    0.4113673630    0.3397624968    0.8529938907          0.7743
O267       O    0.4016370254    0.0863832323    0.6118683251          -0.717
O268       O    0.3811337223    0.0097299514    0.4959885991         -0.7191
O269       O    0.4446532330    0.0664591818    0.5285683981         -0.7177
O270       O    0.3381458853    0.0297631136    0.5794493288         -0.7178
O271       O    0.3083893300    0.0985804938    0.5415400841         -0.7174
O272       O    0.4147138926    0.1345987129    0.4896266573         -0.7176
O273       O    0.3509189747    0.0781819882    0.4579117911          -0.717
O274       O    0.3722126185    0.1551063301    0.5734157530         -0.7189
V275       V    0.3921157255    0.0464016894    0.5548823067          1.3524
V276       V    0.3608343458    0.1183046160    0.5147034237          1.3517
C277       C    0.3905313634    0.1340251245    0.6126229984          0.7754
C278       C    0.3624159882    0.0306874292    0.4569595186           0.776
C279       C    0.4480703628    0.1068071706    0.5002165785          0.7747
C280       C    0.3048774598    0.0578885596    0.5693698341          0.7743
O281       O    0.6637193606    0.2067579447    0.2199877241          -0.717
O282       O    0.5925328796    0.1727330510    0.3278172191         -0.7191
O283       O    0.6642045820    0.1362582165    0.2902963394         -0.7177
O284       O    0.5921465234    0.2432785325    0.2573566451         -0.7178
O285       O    0.5542177538    0.1914943464    0.2051501395         -0.7174
O286       O    0.6256417350    0.0841681031    0.2390462631         -0.7176
O287       O    0.5541182338    0.1212377248    0.2758146344          -0.717
O288       O    0.6258401202    0.1544704780    0.1682298096         -0.7189
V289       V    0.6290688947    0.1910150663    0.2751448297          1.3524
V290       V    0.5890329971    0.1365772089    0.2207776842          1.3517
C291       C    0.6571190818    0.1864135038    0.1754904588          0.7754
C292       C    0.5609794480    0.1411742466    0.3204272064           0.776
C293       C    0.6573183591    0.0916971914    0.2704485704          0.7747
C294       C    0.5607813020    0.2359024139    0.2254816270          0.7743
O295       O    0.8144838437    0.7983244501    0.3246521596          -0.717
O296       O    0.8356028408    0.9139434764    0.4011807646         -0.7191
O297       O    0.7718782660    0.8816946882    0.3444874602         -0.7177
O298       O    0.8781791910    0.8304127894    0.3812365172         -0.7178
O299       O    0.9080492546    0.8678433985    0.3120610864         -0.7174
O300       O    0.8019365958    0.9201554560    0.2759887523         -0.7176
O301       O    0.8659322182    0.9515393418    0.3323704713          -0.717
O302       O    0.8440244047    0.8362990638    0.2555704206         -0.7189
V303       V    0.8243100629    0.8551918434    0.3645801155          1.3524
V304       V    0.8557127153    0.8948677856    0.2923012023          1.3517
C305       C    0.8255413618    0.7973760141    0.2768523875          0.7754
C306       C    0.8544841454    0.9526867854    0.3800226502           0.776
C307       C    0.7685567760    0.9098751082    0.3039506398          0.7747
C308       C    0.9114682576    0.8401838554    0.3529412821          0.7743
O309       O    0.1621123312    0.7049501095    0.7190375453          -0.717
O310       O    0.0909765860    0.6708163603    0.8268796177         -0.7191
O311       O    0.1626192899    0.6343640268    0.7892587267         -0.7177
O312       O    0.0905684205    0.7414483501    0.7565064583         -0.7178
O313       O    0.0525990734    0.6897406914    0.7042652765         -0.7174
O314       O    0.1240163146    0.5823494763    0.7379740829         -0.7176
O315       O    0.0525215416    0.6193974708    0.7748430863          -0.717
O316       O    0.1241926395    0.6527386040    0.6672442952         -0.7189
V317       V    0.1274882076    0.6891509690    0.7742017799          1.3524
V318       V    0.0874099334    0.6347929831    0.7197983062          1.3517
C319       C    0.1554830487    0.6846624289    0.6745203104          0.7754
C320       C    0.0594117265    0.6392770054    0.8194749240           0.776
C321       C    0.1557118017    0.5898296366    0.7693613018          0.7747
C322       C    0.0591841145    0.7341216369    0.7246464786          0.7743
O323       O    0.9012152052    0.5852685533    0.1127057543          -0.717
O324       O    0.8803071115    0.5084883778    0.9970127282         -0.7191
O325       O    0.9440024232    0.5651095161    0.0292965516         -0.7177
O326       O    0.8375488307    0.5287567030    0.0805824705         -0.7178
O327       O    0.8078262904    0.5975895929    0.0426639189         -0.7174
O328       O    0.9140935002    0.6332634266    0.9903471599         -0.7176
O329       O    0.8501253451    0.5769568076    0.9589286799          -0.717
O330       O    0.8718233826    0.6540054998    0.0742429385         -0.7189
V331       V    0.8914907900    0.5452232182    0.0558132611          1.3524
V332       V    0.8602436279    0.6171419481    0.0156252806          1.3517
C333       C    0.8901957442    0.6329390728    0.1134227825          0.7754
C334       C    0.8615359574    0.5294323436    0.9580125450           0.776
C335       C    0.9474251555    0.6054052878    0.0008710805          0.7747
C336       C    0.8043069965    0.5569493100    0.0705681672          0.7743
C1089      C    0.0215878945    0.6056531785    0.9561504243          -0.057
C1090      C    0.9765061789    0.6142012015    0.9537655585          0.0023
C1091      C    0.9580497032    0.6309781945    0.9067653546         -0.0834
C1092      C    0.9852489875    0.6390291148    0.8641955801         -0.0572
C1093      C    0.0303307031    0.6304810918    0.8665804459          0.0022
C1094      C    0.0487871805    0.6137115140    0.9135828255         -0.0825
C1095      C    0.0975037673    0.6048433306    0.9210374844          0.6213
H1096      H    0.0355762771    0.5929816667    0.9924709158          0.1282
H1097      H    0.9712606049    0.6517006266    0.8278750886          0.1283
C1098      C    0.9093331182    0.6398537932    0.8993128715          0.6236
F1099      F    0.1076673462    0.6024860297    0.9722321715         -0.2281
F1100      F    0.1215773062    0.6436726138    0.9008988509         -0.2014
F1101      F    0.1110131030    0.5600419924    0.8998680060         -0.1981
F1102      F    0.8958322541    0.6846539133    0.9204865194         -0.1986
F1103      F    0.8852547700    0.6010285426    0.9194376799         -0.2019
F1104      F    0.8991695410    0.6422185093    0.8481203601         -0.2286
C1073      C    0.8414607060    0.7619217278    0.1783928953          -0.057
C1074      C    0.8434171541    0.7519121106    0.2316669946          0.0023
C1075      C    0.8603550110    0.7042970829    0.2486260371         -0.0834
C1076      C    0.8742764000    0.6683933591    0.2118822747         -0.0572
C1077      C    0.8723199519    0.6784029764    0.1586081754          0.0022
C1078      C    0.8553761725    0.7260148602    0.1416499449         -0.0825
C1079      C    0.8504124567    0.7402947652    0.0847236990          0.6213
H1080      H    0.8282209357    0.7985114135    0.1656309075          0.1282
H1081      H    0.8875161703    0.6318036735    0.2246442625          0.1283
C1082      C    0.8653128044    0.6900140339    0.3055530950          0.6236
F1083      F    0.8231113602    0.7812768444    0.0790840893         -0.2281
F1084      F    0.8330015677    0.7013265446    0.0567239563         -0.2014
F1085      F    0.8886449603    0.7540006231    0.0629228727         -0.1981
F1086      F    0.8270776906    0.6763126303    0.3273444088         -0.1986
F1087      F    0.8827291697    0.7289688689    0.3335570328         -0.2019
F1088      F    0.8926079784    0.6490288108    0.3111935167         -0.2286
C1057      C    0.6883728607    0.0201863121    0.3275942867          -0.057
C1058      C    0.6862326512    0.0444360296    0.2791567905          0.0023
C1059      C    0.7111563191    0.0244172348    0.2379849114         -0.0834
C1060      C    0.7375022745    0.9813859874    0.2468049234         -0.0572
C1061      C    0.7396424840    0.9571362699    0.2952424197          0.0022
C1062      C    0.7147236349    0.9771601669    0.3364153591         -0.0825
C1063      C    0.7156356241    0.9549432133    0.3910309891          0.6213
H1064      H    0.6692756529    0.0359258187    0.3591243473          0.1282
H1065      H    0.7565994823    0.9656464808    0.2152748629          0.1283
C1066      C    0.7102491487    0.0466392906    0.1833703418          0.6236
F1067      F    0.6983693548    0.9889402747    0.4255286363         -0.2281
F1068      F    0.7567215385    0.9451239500    0.4071972325         -0.2014
F1069      F    0.6920941072    0.9111772219    0.3950984846         -0.1981
F1070      F    0.7337900790    0.0904038168    0.1793136831         -0.1986
F1071      F    0.6691700170    0.0564519468    0.1671926333         -0.2019
F1072      F    0.7275202368    0.0126473314    0.1488737550         -0.2286
C1041      C    0.4875626271    0.1461510990    0.3660516675          -0.057
C1042      C    0.5317257001    0.1322700404    0.3670090465          0.0023
C1043      C    0.5488736891    0.1094590446    0.4121133933         -0.0834
C1044      C    0.5214871837    0.1018303182    0.4545921174         -0.0572
C1045      C    0.4773241107    0.1157113768    0.4536347383          0.0022
C1046      C    0.4601785213    0.1385290640    0.4085330162         -0.0825
C1047      C    0.4130740037    0.1566432509    0.4038062870          0.6213
H1048      H    0.4746520544    0.1638792572    0.3313325841          0.1282
H1049      H    0.5343977564    0.0841021600    0.4893112007          0.1283
C1050      C    0.5959806063    0.0913515490    0.4168427472          0.6236
F1051      F    0.4083006904    0.1889962419    0.3627328042         -0.2281
F1052      F    0.3999644103    0.1832996802    0.4460219110         -0.2014
F1053      F    0.3851670240    0.1171567641    0.3961766393         -0.1981
F1054      F    0.6238797909    0.1308430981    0.4244694608         -0.1986
F1055      F    0.6090944034    0.0646880078    0.3746399414         -0.2019
F1056      F    0.6007563192    0.0590052495    0.4579188548         -0.2286
C1025      C    0.1891290394    0.5206101637    0.8275815658          -0.057
C1026      C    0.1850212171    0.5428624941    0.7783654535          0.0023
C1027      C    0.2082730814    0.5211468668    0.7366832380         -0.0834
C1028      C    0.2349773443    0.4784795507    0.7457583387         -0.0572
C1029      C    0.2390851666    0.4562272204    0.7949744510          0.0022
C1030      C    0.2158381545    0.4779479828    0.8366572414         -0.0825
C1031      C    0.2189665201    0.4579807225    0.8920253491          0.6213
H1032      H    0.1713118251    0.5376487981    0.8594862292          0.1282
H1033      H    0.2527945586    0.4614409163    0.7138536753          0.1283
C1034      C    0.2051495680    0.5411192623    0.6813157051          0.6236
F1035      F    0.2030838449    0.4933804749    0.9260372004         -0.2281
F1036      F    0.2606647772    0.4487791431    0.9062297324         -0.2014
F1037      F    0.1956488234    0.4144473501    0.8992206854         -0.1981
F1038      F    0.2284671166    0.5846516142    0.6741312776         -0.1986
F1039      F    0.1634576290    0.5503137631    0.6670997661         -0.2019
F1040      F    0.2210370955    0.5057246451    0.6473044287         -0.2286
C1009      C    0.3537165449    0.2666694003    0.6806483699          -0.057
C1010      C    0.3434922497    0.2519492104    0.7314363543          0.0023
C1011      C    0.3481351073    0.1997652155    0.7456964596         -0.0834
C1012      C    0.3623692209    0.1642739843    0.7087191458         -0.0572
C1013      C    0.3725935161    0.1789941742    0.6579311614          0.0022
C1014      C    0.3679443264    0.2311766467    0.6436699690         -0.0825
C1015      C    0.3767511035    0.2511572275    0.5891715010          0.6213
H1016      H    0.3498831508    0.3068077055    0.6698970635          0.1282
H1017      H    0.3662026150    0.1241356792    0.7194704522          0.1283
C1018      C    0.3393219980    0.1797831123    0.8001938404          0.6236
F1019      F    0.3589074519    0.2987465668    0.5824533966         -0.2281
F1020      F    0.3589481005    0.2204003994    0.5525616264         -0.2014
F1021      F    0.4197203172    0.2559855229    0.5792607452         -0.1981
F1022      F    0.2963529167    0.1749606420    0.8100953272         -0.1986
F1023      F    0.3571270976    0.2105251258    0.8368073447         -0.2019
F1024      F    0.3571593174    0.1321922505    0.8069108577         -0.2286
C993       C    0.9004198774    0.5570804415    0.8256491765          -0.057
C994       C    0.8617137621    0.5701800375    0.7999793714          0.0023
C995       C    0.8222720009    0.5698282464    0.8279221512         -0.0834
C996       C    0.8228885808    0.5559931214    0.8801357785         -0.0572
C997       C    0.8615946960    0.5428935254    0.9058055836          0.0022
C998       C    0.9010348450    0.5432382497    0.8778603249         -0.0825
C999       C    0.9447596894    0.5280679803    0.9013785596          0.6213
H1000      H    0.9305880590    0.5572098907    0.8038672373          0.1282
H1001      H    0.7927203991    0.5558636722    0.9019177177          0.1283
C1002      C    0.7785455442    0.5849914488    0.8044014377          0.6236
F1003      F    0.9746438787    0.5184670921    0.8636750801         -0.2281
F1004      F    0.9418228866    0.4844672503    0.9299116104         -0.2014
F1005      F    0.9616138188    0.5657124220    0.9313519312         -0.1981
F1006      F    0.7617001001    0.5473436743    0.7744296603         -0.1986
F1007      F    0.7814715299    0.6285926157    0.7758770517         -0.2019
F1008      F    0.7486597426    0.5945852701    0.8421024383         -0.2286
C977       C    0.9902587778    0.4597821670    0.8344521546          -0.057
C978       C    0.0315903183    0.4826647542    0.8375793411          0.0023
C979       C    0.0457557150    0.5145280798    0.7967213896         -0.0834
C980       C    0.0183937757    0.5219390090    0.7542020746         -0.0572
C981       C    0.9770622353    0.4990564218    0.7510748881          0.0022
C982       C    0.9629002625    0.4671874231    0.7919295010         -0.0825
C983       C    0.9192559695    0.4390581292    0.7918387921          0.6213
H984       H    0.9796650491    0.4351505217    0.8658957095          0.1282
H985       H    0.0289875045    0.5465706543    0.7227585197          0.1283
C986       C    0.0894034321    0.5426517008    0.7968087599          0.6236
F987       F    0.9187822013    0.4010122940    0.8281140982         -0.2281
F988       F    0.9111506844    0.4159796883    0.7459002847         -0.2014
F989       F    0.8856677501    0.4707179663    0.8030422180         -0.1981
F990       F    0.1229847064    0.5109849072    0.7856071849         -0.1986
F991       F    0.0975119885    0.5657396709    0.8427357025         -0.2019
F992       F    0.0898806242    0.5806918630    0.7605301152         -0.2286
C961       C    0.8157786905    0.0335301901    0.3660887849          -0.057
C962       C    0.8544173208    0.0046417441    0.3661680127          0.0023
C963       C    0.8937222140    0.0290540236    0.3521499580         -0.0834
C964       C    0.8929204788    0.0810806675    0.3381599786         -0.0572
C965       C    0.8542818485    0.1099691135    0.3380807509          0.0022
C966       C    0.8149766661    0.0855542558    0.3520915091         -0.0825
C967       C    0.7709152605    0.1127400776    0.3517370037          0.6213
H968       H    0.7856577076    0.0144514119    0.3766835172          0.1282
H969       H    0.9230414618    0.1001594457    0.3275652463          0.1283
C970       C    0.9377833302    0.0018656234    0.3524971669          0.6236
F971       F    0.7378040399    0.0778378322    0.3531458288         -0.2281
F972       F    0.7650145534    0.1410179388    0.3083232526         -0.2014
F973       F    0.7655395945    0.1438579347    0.3930869609         -0.1981
F974       F    0.9431499858    0.9707501072    0.3111468842         -0.1986
F975       F    0.9436950033    0.9735954515    0.3959075697         -0.2019
F976       F    0.9708942615    0.0367652906    0.3510810454         -0.2286
C945       C    0.8298356961    0.4139300239    0.4707035771          -0.057
C946       C    0.8432558058    0.3622710304    0.4731451211          0.0023
C947       C    0.8715493907    0.3469450814    0.5132371113         -0.0834
C948       C    0.8856600537    0.3837362418    0.5489773298         -0.0572
C949       C    0.8722399440    0.4353952353    0.5465357858          0.0022
C950       C    0.8439516625    0.4507217795    0.5064393180         -0.0825
C951       C    0.8284425461    0.5061205944    0.4990773042          0.6213
H952       H    0.8082404053    0.4254838705    0.4396438439          0.1282
H953       H    0.9072553445    0.3721823953    0.5800370630          0.1283
C954       C    0.8870638107    0.2915468617    0.5205946474          0.6236
F955       F    0.8115763631    0.5128889374    0.4508618897         -0.2281
F956       F    0.8614123178    0.5404338591    0.5037936135         -0.2014
F957       F    0.7967384602    0.5191275956    0.5328074563         -0.1981
F958       F    0.9187646910    0.2785492550    0.4868603977         -0.1986
F959       F    0.8541015630    0.2572297171    0.5158903850         -0.2019
F960       F    0.9039352971    0.2847791138    0.5688055842         -0.2286
C929       C    0.3907092297    0.5776067421    0.8282728948          -0.057
C930       C    0.3548213474    0.6094827995    0.8386034016          0.0023
C931       C    0.3181536963    0.5882037073    0.8635656668         -0.0834
C932       C    0.3185227526    0.5359730157    0.8767964838         -0.0572
C933       C    0.3544106349    0.5040969582    0.8664659770          0.0022
C934       C    0.3910750806    0.5253749585    0.8414970527         -0.0825
C935       C    0.4312478486    0.4939676956    0.8268823986          0.6213
H936       H    0.4187040054    0.5941725989    0.8088657383          0.1282
H937       H    0.2905279770    0.5194071588    0.8962036403          0.1283
C938       C    0.2779777227    0.6196098782    0.8781736619          0.6236
F939       F    0.4560388674    0.5197812180    0.7917193945         -0.2281
F940       F    0.4205427647    0.4484190329    0.8047365656         -0.2014
F941       F    0.4571825873    0.4844723660    0.8679239118         -0.1981
F942       F    0.2520507331    0.6291015005    0.8371274989         -0.1986
F943       F    0.2886729176    0.6651520872    0.9003272711         -0.2019
F944       F    0.2531834984    0.5937952638    0.9133300069         -0.2286
C913       C    0.1950183679    0.6596866235    0.9009226534          -0.057
C914       C    0.2400903809    0.6573696784    0.9095780994          0.0023
C915       C    0.2585871467    0.6105025333    0.9263346741         -0.0834
C916       C    0.2314352669    0.5679912715    0.9342607091         -0.0572
C917       C    0.1863632539    0.5703082166    0.9256052631          0.0022
C918       C    0.1678664722    0.6171775144    0.9088561303         -0.0825
C919       C    0.1191529965    0.6245436270    0.8998839032          0.6213
H920       H    0.1809984064    0.6959041187    0.8882683151          0.1282
H921       H    0.2454552284    0.5317737763    0.9469150474          0.1283
C922       C    0.3073006063    0.6031385733    0.9353143431          0.6236
F923       F    0.1089214618    0.6755752523    0.8976149172         -0.2281
F924       F    0.0950490148    0.6043339860    0.9387351548         -0.2014
F925       F    0.1057409555    0.6035130450    0.8548771703         -0.1981
F926       F    0.3207041718    0.6241733003    0.9803198472         -0.1986
F927       F    0.3314094106    0.6233344294    0.8964671143         -0.2019
F928       F    0.3175321250    0.5521091006    0.9375907710         -0.2286
C897       C    0.3250953221    0.0761979655    0.3292536547          -0.057
C898       C    0.3627086139    0.0706133950    0.2989314510          0.0023
C899       C    0.4008469777    0.0510312470    0.3220839580         -0.0834
C900       C    0.4001256987    0.0382582667    0.3745678497         -0.0572
C901       C    0.3625124069    0.0438428371    0.4048900534          0.0022
C902       C    0.3243765515    0.0634320247    0.3817386991         -0.0825
C903       C    0.2821122924    0.0726737680    0.4113620564          0.6213
H904       H    0.2959541033    0.0914918804    0.3112527798          0.1282
H905       H    0.4292669175    0.0229643517    0.3925687246          0.1283
C906       C    0.4431137451    0.0417965432    0.2924617535          0.6236
F907       F    0.2549254003    0.1039414916    0.3840468692         -0.2281
F908       F    0.2891931972    0.0963975765    0.4572088351         -0.2014
F909       F    0.2600139697    0.0285656687    0.4202596063         -0.1981
F910       F    0.4652038125    0.0859082212    0.2835675406         -0.1986
F911       F    0.4360432039    0.0180664247    0.2466219473         -0.2019
F912       F    0.4703031456    0.0105358592    0.3197780934         -0.2286
C881       C    0.3849212892    0.9389073481    0.9940583227          -0.057
C882       C    0.3733177841    0.9350715465    0.0464060295          0.0023
C883       C    0.3468033193    0.8936365573    0.0623966071         -0.0834
C884       C    0.3325803279    0.8579814078    0.0255775467         -0.0572
C885       C    0.3441838329    0.8618172093    0.9732298400          0.0022
C886       C    0.3706928451    0.9032564339    0.9572389901         -0.0825
C887       C    0.3841070445    0.9121453854    0.9011306678          0.6213
H888       H    0.4051493938    0.9709881658    0.9820053442          0.1282
H889       H    0.3123522232    0.8259005901    0.0376305252          0.1283
C890       C    0.3333836673    0.8847518412    0.1185046570          0.6236
F891       F    0.3992474584    0.9610333664    0.8943871066         -0.2281
F892       F    0.3501855836    0.9065242188    0.8682052487         -0.2014
F893       F    0.4163635614    0.8801489860    0.8860411155         -0.1981
F894       F    0.3011299127    0.9167526120    0.1335847164         -0.1986
F895       F    0.3672981131    0.8903606120    0.1514341085         -0.2019
F896       F    0.3182378009    0.8358680956    0.1252479459         -0.2286
C865       C    0.6715475153    0.1116345565    0.3953915950          -0.057
C866       C    0.6857433584    0.0700562135    0.4257347112          0.0023
C867       C    0.7274327139    0.0723296477    0.4484785188         -0.0834
C868       C    0.7534568641    0.1156575245    0.4397125363         -0.0572
C869       C    0.7392610209    0.1572358675    0.4093694201          0.0022
C870       C    0.6975744029    0.1549582490    0.3866199665         -0.0825
C871       C    0.6794108685    0.1971211528    0.3515977032          0.6213
H872       H    0.6395414829    0.1095187424    0.3778397645          0.1282
H873       H    0.7854628965    0.1177733386    0.4572643668          0.1283
C874       C    0.7455989855    0.0301625596    0.4834951360          0.6236
F875       F    0.6445400745    0.1794837095    0.3243024924         -0.2281
F876       F    0.7090379841    0.2131531522    0.3163347965         -0.2014
F877       F    0.6654512525    0.2385176284    0.3785427847         -0.1981
F878       F    0.7595538388    0.9887717421    0.4565425808         -0.1986
F879       F    0.7159835254    0.0141321374    0.5187648324         -0.2019
F880       F    0.7804725169    0.0477958187    0.5107847008         -0.2286
C849       C    0.4600381283    0.9962976883    0.3008516517          -0.057
C850       C    0.4775139251    0.9986594604    0.2507623073          0.0023
C851       C    0.5227912105    0.9923714322    0.2441623143         -0.0834
C852       C    0.5488848541    0.9844721886    0.2877049439         -0.0572
C853       C    0.5314090573    0.9821104165    0.3377942882          0.0022
C854       C    0.4861328574    0.9884060582    0.3443940088         -0.0825
C855       C    0.4638456822    0.9882282831    0.3971327511          0.6213
H856       H    0.4252315192    0.0013954601    0.3056544991          0.1282
H857       H    0.5836914631    0.9793744168    0.2829020964          0.1283
C858       C    0.5450794712    0.9925568208    0.1914232995          0.6236
F859       F    0.4230388124    0.0085026024    0.3937939882         -0.2281
F860       F    0.4856144972    0.0172337559    0.4321221026         -0.2014
F861       F    0.4593004001    0.9401813537    0.4164436742         -0.1981
F862       F    0.5496189118    0.0406052144    0.1721207341         -0.1986
F863       F    0.5233234762    0.9635487428    0.1564326670         -0.2019
F864       F    0.5858874266    0.9722901150    0.1947617899         -0.2286
C833       C    0.4491418677    0.2779493596    0.8327079163          -0.057
C834       C    0.4396442095    0.3267535956    0.8532420415          0.0023
C835       C    0.4738074736    0.3563979825    0.8743105413         -0.0834
C836       C    0.5159527503    0.3360822713    0.8745291815         -0.0572
C837       C    0.5254504085    0.2872780353    0.8539950562          0.0022
C838       C    0.4912858100    0.2576314422    0.8329338117         -0.0825
C839       C    0.4976190742    0.2034821369    0.8111366756          0.6213
H840       H    0.4226857948    0.2552815295    0.8167874042          0.1282
H841       H    0.5424088232    0.3587501015    0.8904496935          0.1283
C842       C    0.4674728749    0.4105450815    0.8961149325          0.6236
F843       F    0.4586961948    0.1787609068    0.8064219528         -0.2281
F844       F    0.5225406163    0.1738309689    0.8424058743         -0.2014
F845       F    0.5157579902    0.2040013009    0.7635899081         -0.1981
F846       F    0.4493327512    0.4100156475    0.9436582450         -0.1986
F847       F    0.4425614937    0.4402044781    0.8648508822         -0.2019
F848       F    0.5063944198    0.4352641054    0.9008369105         -0.2286
C817       C    0.7250171209    0.5729190817    0.5530891665          -0.057
C818       C    0.6898109283    0.5571797480    0.5838917330          0.0023
C819       C    0.6978864621    0.5410851697    0.6350799190         -0.0834
C820       C    0.7407003368    0.5408472737    0.6533778314         -0.0572
C821       C    0.7759065294    0.5565866074    0.6225752649          0.0022
C822       C    0.7678310105    0.5726737017    0.5713851546         -0.0825
C823       C    0.8037302365    0.5889513004    0.5339887038          0.6213
H824       H    0.7185881327    0.5850214706    0.5137045270          0.1282
H825       H    0.7471293250    0.5287448848    0.6927624708          0.1283
C826       C    0.6619872509    0.5248000870    0.6724744456          0.6236
F827       F    0.7888130152    0.5891188240    0.4844078612         -0.2281
F828       F    0.8379745382    0.5561231893    0.5350281195         -0.2014
F829       F    0.8184747524    0.6370138731    0.5437018227         -0.1981
F830       F    0.6472477281    0.4767398092    0.6627524010         -0.1986
F831       F    0.6277457181    0.5576244575    0.6714497008         -0.2019
F832       F    0.6769044871    0.5246250794    0.7220533640         -0.2286
C801       C    0.6026861566    0.4094529904    0.7488833659          -0.057
C802       C    0.6220701733    0.3629873808    0.7332915838          0.0023
C803       C    0.6273004580    0.3532051481    0.6800121433         -0.0834
C804       C    0.6126652779    0.3898300752    0.6444106688         -0.0572
C805       C    0.5932812612    0.4362956848    0.6600024509          0.0022
C806       C    0.5880455586    0.4460736270    0.7132815060         -0.0825
C807       C    0.5661608602    0.4944549826    0.7345255825          0.6213
H808       H    0.5985938895    0.4166091529    0.7898967643          0.1282
H809       H    0.6167575450    0.3826739127    0.6033972704          0.1283
C810       C    0.6491797384    0.3048195021    0.6587676812          0.6236
F811       F    0.5549901818    0.4879605909    0.7850677183         -0.2281
F812       F    0.5288935824    0.5057272938    0.7089895895         -0.2014
F813       F    0.5925386880    0.5360464118    0.7326116123         -0.1981
F814       F    0.6227974790    0.2632353567    0.6606879003         -0.1986
F815       F    0.6864488339    0.2935453393    0.6842884401         -0.2019
F816       F    0.6603449989    0.3113096033    0.6082251600         -0.2286
C785       C    0.2271456028    0.4450261810    0.1535540362          -0.057
C786       C    0.2686087830    0.4285481325    0.1378049742          0.0023
C787       C    0.2745366270    0.4120241274    0.0863326084         -0.0834
C788       C    0.2388847614    0.4121114280    0.0527645110         -0.0572
C789       C    0.1974215812    0.4285894765    0.0685135730          0.0022
C790       C    0.1914931227    0.4451060183    0.1199878044         -0.0825
C791       C    0.1476069436    0.4621986169    0.1417201130          0.6213
H792       H    0.2227858362    0.4574564160    0.1932408264          0.1282
H793       H    0.2432445280    0.3996811929    0.0130777209          0.1283
C794       C    0.3184221917    0.3949240656    0.0646021652          0.6236
F795       F    0.1484169187    0.4626985353    0.1943632810         -0.2281
F796       F    0.1150742738    0.4297743036    0.1279634095         -0.2014
F797       F    0.1367806090    0.5103329216    0.1266212754         -0.1981
F798       F    0.3292414217    0.3467922076    0.0797075551         -0.1986
F799       F    0.3509561396    0.4273445207    0.0783439386         -0.2019
F800       F    0.3176116022    0.3944166840    0.0119608627         -0.2286
C769       C    0.4773301378    0.2556363519    0.2362936046          -0.057
C770       C    0.5193940327    0.2740706252    0.2258613402          0.0023
C771       C    0.5251831915    0.3270677670    0.2158227951         -0.0834
C772       C    0.4888360474    0.3594783257    0.2160953554         -0.0572
C773       C    0.4467721526    0.3410440524    0.2265276198          0.0022
C774       C    0.4409829461    0.2880459000    0.2365584830         -0.0825
C775       C    0.3966095147    0.2635600147    0.2466864592          0.6213
H776       H    0.4730980612    0.2148141642    0.2437466895          0.1282
H777       H    0.4930681241    0.4003005134    0.2086422705          0.1283
C778       C    0.5695565752    0.3515526415    0.2056871371          0.6236
F779       F    0.3986747510    0.2113862443    0.2413584583         -0.2281
F780       F    0.3661153371    0.2801295274    0.2127659627         -0.2014
F781       F    0.3821089153    0.2727744402    0.2950901245         -0.1981
F782       F    0.5840500879    0.3423312838    0.1572844528         -0.1986
F783       F    0.6000519274    0.3349983844    0.2396056056         -0.2019
F784       F    0.5674912912    0.4037254012    0.2110074562         -0.2286
C753       C    0.4706255206    0.5156717487    0.3656554838          -0.057
C754       C    0.4343280107    0.4829382894    0.3687868901          0.0023
C755       C    0.4249979415    0.4584911789    0.4162154040         -0.0834
C756       C    0.4523899419    0.4672267364    0.4584570132         -0.0572
C757       C    0.4886874518    0.4999601958    0.4553256069          0.0022
C758       C    0.4980204727    0.5244007429    0.4078949891         -0.0825
C759       C    0.5373677653    0.5593791191    0.3996377377          0.6213
H760       H    0.4777109839    0.5341518580    0.3290108783          0.1282
H761       H    0.4453044786    0.4487466271    0.4951016187          0.1283
C762       C    0.3856536007    0.4235062393    0.4244705515          0.6236
F763       F    0.5451278739    0.5664195134    0.3482766044         -0.2281
F764       F    0.5741844265    0.5389283282    0.4197939638         -0.2014
F765       F    0.5314865729    0.6067155932    0.4201732617         -0.1981
F766       F    0.3915417505    0.3761755215    0.4039307219         -0.1986
F767       F    0.3488343807    0.4439509809    0.4043282586         -0.2019
F768       F    0.3778964438    0.4164592816    0.4758295809         -0.2286
C737       C    0.9405564658    0.7875615173    0.7214776585          -0.057
C738       C    0.9464512757    0.8410272261    0.7259757169          0.0023
C739       C    0.9891370433    0.8607062803    0.7298747970         -0.0834
C740       C    0.0241928774    0.8263599606    0.7296266263         -0.0572
C741       C    0.0182980675    0.7728942518    0.7251285679          0.0022
C742       C    0.9756120183    0.7532156828    0.7212372139         -0.0825
C743       C    0.9653321892    0.6957578448    0.7178860952          0.6213
H744       H    0.9076427352    0.7726917487    0.7187300449          0.1282
H745       H    0.0571066080    0.8412297292    0.7323742399          0.1283
C746       C    0.9994165908    0.9181646035    0.7332336419          0.6236
F747       F    0.9225374897    0.6868114966    0.7284039102         -0.2281
F748       F    0.9884273628    0.6679505187    0.7526419217         -0.2014
F749       F    0.9729218967    0.6763744534    0.6702891311         -0.1981
F750       F    0.9918228140    0.9375381961    0.7808310163         -0.1986
F751       F    0.9763337605    0.9459769440    0.6984781294         -0.2019
F752       F    0.0422110086    0.9271114369    0.7227235532         -0.2286
C721       C    0.7735385247    0.9145895723    0.5858056453          -0.057
C722       C    0.7684370147    0.9290096834    0.6377572303          0.0023
C723       C    0.7267126403    0.9431830426    0.6555696287         -0.0834
C724       C    0.6918469953    0.9428963552    0.6208579680         -0.0572
C725       C    0.6969485053    0.9284762442    0.5689063831          0.0022
C726       C    0.7386740746    0.9143104365    0.5510931676         -0.0825
C727       C    0.7482375038    0.8996052852    0.4951030598          0.6213
H728       H    0.8057427346    0.9039643265    0.5723280138          0.1282
H729       H    0.6596427854    0.9535216011    0.6343355996          0.1283
C730       C    0.7171504061    0.9578957454    0.7115589194          0.6236
F731       F    0.7918163056    0.9012592474    0.4854698156         -0.2281
F732       F    0.7293801031    0.9325055446    0.4612255227         -0.2014
F733       F    0.7350178943    0.8512679513    0.4837978873         -0.1981
F734       F    0.7303740557    0.0062311445    0.7228544311         -0.1986
F735       F    0.7359956425    0.9249986785    0.7454410763         -0.2019
F736       F    0.6735727992    0.9562493348    0.7211913466         -0.2286
C705       C    0.7410152324    0.0671557142    0.8087485726          -0.057
C706       C    0.7800325634    0.0711352914    0.7807624151          0.0023
C707       C    0.7923887399    0.1195906411    0.7608523962         -0.0834
C708       C    0.7652253873    0.1620078949    0.7691815308         -0.0572
C709       C    0.7262080563    0.1580283177    0.7971676883          0.0022
C710       C    0.7138494773    0.1095714214    0.8170706724         -0.0825
C711       C    0.6715016585    0.1004557665    0.8465671226          0.6213
H712       H    0.7316267459    0.0297405347    0.8237399640          0.1282
H713       H    0.7746138738    0.1994230744    0.7541901395          0.1283
C714       C    0.8347341562    0.1287047494    0.7313489111          0.6236
F715       F    0.6621514702    0.0491949495    0.8490677303         -0.2281
F716       F    0.6370828284    0.1232028741    0.8231745291         -0.2014
F717       F    0.6736151199    0.1175017871    0.8958190431         -0.1981
F718       F    0.8326131879    0.1116543160    0.6821015817         -0.1986
F719       F    0.8691563360    0.1059718076    0.7547367610         -0.2019
F720       F    0.8440819420    0.1799640198    0.7288412686         -0.2286
C689       C    0.2265513806    0.0698511248    0.0510168019          -0.057
C690       C    0.1910464446    0.0569485742    0.0826515785          0.0023
C691       C    0.1987947699    0.0438359429    0.1347589965         -0.0834
C692       C    0.2415836298    0.0436263105    0.1531395144         -0.0572
C693       C    0.2770885657    0.0565288610    0.1215047378          0.0022
C694       C    0.2693401186    0.0696339055    0.0693958630         -0.0825
C695       C    0.3055515494    0.0826493689    0.0311480736          0.6213
H696       H    0.2203690276    0.0796653212    0.0109417889          0.1282
H697       H    0.2477659827    0.0338121140    0.1932145273          0.1283
C698       C    0.1625832172    0.0308128925    0.1730053291          0.6236
F699       F    0.2906689451    0.0801440617    0.9816155386         -0.2281
F700       F    0.3391823981    0.0490761701    0.0343020766         -0.2014
F701       F    0.3211722269    0.1308283178    0.0378995651         -0.1981
F702       F    0.1469675788    0.9826355552    0.1662447988         -0.1986
F703       F    0.1289550596    0.0643831919    0.1698662076         -0.2019
F704       F    0.1774656996    0.0333106129    0.2225364074         -0.2286
C673       C    0.0049625005    0.0076531897    0.9037664297          -0.057
C674       C    0.9896783948    0.0002292937    0.9543651596          0.0023
C675       C    0.9463130297    0.9839166137    0.9617737517         -0.0834
C676       C    0.9198029964    0.9761207987    0.9185650752         -0.0572
C677       C    0.9350871021    0.9835446948    0.8679663453          0.0022
C678       C    0.9784503240    0.9998645552    0.8605590574         -0.0825
C679       C    0.9980386290    0.0107407335    0.8074403546          0.6213
H680       H    0.0382738327    0.0204181919    0.8983739809          0.1282
H681       H    0.8864916641    0.9633557965    0.9239575240          0.1283
C682       C    0.9267225815    0.9730476159    0.0148937586          0.6236
F683       F    0.0354543007    0.0385794658    0.8118731711         -0.2281
F684       F    0.9709002234    0.0388498905    0.7773631165         -0.2014
F685       F    0.0085037872    0.9670981853    0.7818630768         -0.1981
F686       F    0.9162625876    0.0166938233    0.0404627271         -0.1986
F687       F    0.9538487998    0.9449331060    0.0449724043         -0.2019
F688       F    0.8893047667    0.9452160641    0.0104622463         -0.2286
C657       C    0.9890472566    0.7546899445    0.3570670440          -0.057
C658       C    0.0253079827    0.7874569294    0.3536960487          0.0023
C659       C    0.0184725880    0.8411055086    0.3502223188         -0.0834
C660       C    0.9758379492    0.8599316650    0.3497566515         -0.0572
C661       C    0.9395772231    0.8271646801    0.3531276468          0.0022
C662       C    0.9464132315    0.7735161367    0.3565936624         -0.0825
C663       C    0.9094360077    0.7342715062    0.3587329103          0.6213
H664       H    0.9945444085    0.7134776212    0.3594931371          0.1282
H665       H    0.9703407973    0.9011439883    0.3473305584          0.1283
C666       C    0.0554504253    0.8803501749    0.3480753565          0.6236
F667       F    0.9244014633    0.6860196018    0.3480186154         -0.2281
F668       F    0.8780897669    0.7444644612    0.3234054547         -0.2014
F669       F    0.8907350763    0.7318783793    0.4059136659         -0.1981
F670       F    0.0741462214    0.8827342436    0.3008939837         -0.1986
F671       F    0.0867941822    0.8701723875    0.3834026068         -0.2019
F672       F    0.0404855834    0.9286021152    0.3587819371         -0.2286
C641       C    0.2485195149    0.6345505583    0.3381480777          -0.057
C642       C    0.2257655091    0.6574961403    0.2971115758          0.0023
C643       C    0.2298114788    0.6362449071    0.2471494027         -0.0834
C644       C    0.2566468477    0.5933305428    0.2399632741         -0.0572
C645       C    0.2794008535    0.5703849608    0.2809997760          0.0022
C646       C    0.2753594466    0.5916412977    0.3309598276         -0.0825
C647       C    0.2996789234    0.5709007020    0.3780044350          0.6213
H648       H    0.2454087498    0.6512337844    0.3764056414          0.1282
H649       H    0.2597576128    0.5766473167    0.2017057104          0.1283
C650       C    0.2054965648    0.6569906066    0.2001026737          0.6236
F651       F    0.2992607288    0.6059050717    0.4172477152         -0.2281
F652       F    0.3420765984    0.5613071040    0.3674121600         -0.2014
F653       F    0.2815000587    0.5273835240    0.3968126473         -0.1981
F654       F    0.2236795688    0.7005066151    0.1813041835         -0.1986
F655       F    0.1630998892    0.6665772554    0.2106811572         -0.2019
F656       F    0.2059193221    0.6219913406    0.1608572719         -0.2286
C625       C    0.1521605465    0.8930559641    0.2049747038          -0.057
C626       C    0.1222219383    0.8629494919    0.2327212498          0.0023
C627       C    0.0773460129    0.8695576578    0.2232401969         -0.0834
C628       C    0.0640704277    0.9061836295    0.1868957179         -0.0572
C629       C    0.0940090358    0.9362901018    0.1591491718          0.0022
C630       C    0.1388841841    0.9296866487    0.1686362957         -0.0825
C631       C    0.1741812184    0.9614521005    0.1419845268          0.6213
H632       H    0.1865967727    0.8879313209    0.2126320378          0.1282
H633       H    0.0296342015    0.9113082727    0.1792383838          0.1283
C634       C    0.0420482015    0.8377969187    0.2498980367          0.6236
F635       F    0.2127419468    0.9572867803    0.1676380088         -0.2281
F636       F    0.1642567127    0.0122800174    0.1410092272         -0.2014
F637       F    0.1816487130    0.9456322418    0.0930536318         -0.1981
F638       F    0.0345885487    0.8536219229    0.2988263272         -0.1986
F639       F    0.0519601244    0.7869708192    0.2508696490         -0.2019
F640       F    0.0034866960    0.8419669517    0.2242506256         -0.2286
C609       C    0.6429280916    0.5564743142    0.3261186737          -0.057
C610       C    0.6041765784    0.5436912371    0.3003758974          0.0023
C611       C    0.5646413094    0.5449048862    0.3281070348         -0.0834
C612       C    0.5653216872    0.5583169708    0.3804334097         -0.0572
C613       C    0.6040732003    0.5711000478    0.4061761860          0.0022
C614       C    0.6436085574    0.5698787900    0.3784463872         -0.0825
C615       C    0.6877651135    0.5813962593    0.4029038344          0.6213
H616       H    0.6732200681    0.5552337014    0.3046161428          0.1282
H617       H    0.5350297106    0.5595575836    0.4019359406          0.1283
C618       C    0.5204848414    0.5333798080    0.3036509261          0.6236
F619       F    0.7207343416    0.5643008624    0.3721335795         -0.2281
F620       F    0.6926692132    0.5574230717    0.4490150657         -0.2014
F621       F    0.6943540816    0.6323864914    0.4098205440         -0.1981
F622       F    0.5139048817    0.4823901292    0.2967365314         -0.1986
F623       F    0.5155697301    0.5573542543    0.2575479221         -0.2019
F624       F    0.4875157015    0.5504675961    0.3344225196         -0.2286
C593       C    0.7239242102    0.5820692948    0.1489927183          -0.057
C594       C    0.6900219474    0.5571517115    0.1225456360          0.0023
C595       C    0.6994313770    0.5314942066    0.0757833213         -0.0834
C596       C    0.7421007487    0.5320818538    0.0569938929         -0.0572
C597       C    0.7760030114    0.5569994371    0.0834409752          0.0022
C598       C    0.7665916298    0.5826629113    0.1301989528         -0.0825
C599       C    0.8005710164    0.6123842140    0.1612536296          0.6213
H600       H    0.7164132309    0.6019098461    0.1847955564          0.1282
H601       H    0.7496117279    0.5122413025    0.0211910548          0.1283
C602       C    0.6654500384    0.5017788732    0.0447243074          0.6236
F603       F    0.7810774286    0.6442505410    0.1961228306         -0.2281
F604       F    0.8255653841    0.6427347005    0.1307251633         -0.2014
F605       F    0.8269499577    0.5808840459    0.1885332930         -0.1981
F606       F    0.6390754298    0.5332859254    0.0174514223         -0.1986
F607       F    0.6404590050    0.4714206538    0.0752399527         -0.2019
F608       F    0.6849416741    0.4699185156    0.0098507694         -0.2286
C577       C    0.2389247323    0.6804682851    0.6537342203          -0.057
C578       C    0.1960491249    0.6850879064    0.6355448093          0.0023
C579       C    0.1889165456    0.6899273810    0.5819013286         -0.0834
C580       C    0.2247496727    0.6904582545    0.5485857074         -0.0572
C581       C    0.2676252802    0.6858386333    0.5667751184          0.0022
C582       C    0.2747573752    0.6810068546    0.6204189629         -0.0825
C583       C    0.3199870928    0.6774326117    0.6445687383          0.6213
H584       H    0.2441726542    0.6769947818    0.6950367893          0.1282
H585       H    0.2195017509    0.6939317579    0.5072831384          0.1283
C586       C    0.1436863438    0.6935093199    0.5577519171          0.6236
F587       F    0.3181953556    0.6869637117    0.6963061971         -0.2281
F588       F    0.3477616908    0.7125929190    0.6243649984         -0.2014
F589       F    0.3377499275    0.6301509034    0.6390434456         -0.1981
F590       F    0.1259307247    0.7407913457    0.5632840325         -0.1986
F591       F    0.1159102436    0.6583496009    0.5779402748         -0.2019
F592       F    0.1454775967    0.6839859158    0.5060148222         -0.2286
C561       C    0.4886851884    0.7544299324    0.4767476500          -0.057
C562       C    0.4460195348    0.7737227746    0.4786582177          0.0023
C563       C    0.4396712808    0.8275292549    0.4806954753         -0.0834
C564       C    0.4760322805    0.8599262240    0.4812370203         -0.0572
C565       C    0.5186979341    0.8406333818    0.4793264526          0.0022
C566       C    0.5250454628    0.7868269154    0.4772968958         -0.0825
C567       C    0.5699283473    0.7615957537    0.4768129366          0.6213
H568       H    0.4933217130    0.7130193196    0.4754213775          0.1282
H569       H    0.4713957559    0.9013368368    0.4825632928          0.1283
C570       C    0.3947876709    0.8527604306    0.4811871353          0.6236
F571       F    0.5669537466    0.7105694881    0.4886855541         -0.2281
F572       F    0.5969531586    0.7827608365    0.5122836883         -0.2014
F573       F    0.5892161291    0.7644549481    0.4299925759         -0.1981
F574       F    0.3755069711    0.8498942957    0.5280084458         -0.1986
F575       F    0.3677616064    0.8316107266    0.4457161911         -0.2019
F576       F    0.3977615464    0.9037867100    0.4693222186         -0.2286
C545       C    0.4782397133    0.6461005594    0.3379288582          -0.057
C546       C    0.4341370787    0.6319455309    0.3368709475          0.0023
C547       C    0.4172508600    0.6086003892    0.2918945649         -0.0834
C548       C    0.4448271818    0.6007296363    0.2496339022         -0.0572
C549       C    0.4889298163    0.6148846648    0.2506918130          0.0022
C550       C    0.5058136185    0.6382364579    0.2956654952         -0.0825
C551       C    0.5528264313    0.6566781908    0.3004679937          0.6213
H552       H    0.4909481140    0.6642381282    0.3725463239          0.1282
H553       H    0.4321187810    0.5825920675    0.2150164366          0.1283
C554       C    0.3702356306    0.5901653077    0.2870893660          0.6236
F555       F    0.5573150592    0.6894517246    0.3412586484         -0.2281
F556       F    0.5659873358    0.6830072892    0.2580715884         -0.2014
F557       F    0.5808628237    0.6174349285    0.3086167180         -0.1981
F558       F    0.3422070017    0.6294137069    0.2789435687         -0.1986
F559       F    0.3570705993    0.5638289495    0.3294729991         -0.2019
F560       F    0.3657445862    0.5573984253    0.2462960109         -0.2286
C529       C    0.6498815943    0.0327464336    0.8416005803          -0.057
C530       C    0.6110010838    0.0044605662    0.8386182027          0.0023
C531       C    0.5713340116    0.0294153661    0.8499614627         -0.0834
C532       C    0.5720040105    0.0813598019    0.8642769113         -0.0572
C533       C    0.6108845210    0.1096456693    0.8672592889          0.0022
C534       C    0.6505514861    0.0846882532    0.8559233184         -0.0825
C535       C    0.6948118573    0.1111862758    0.8595554642          0.6213
H536       H    0.6802685902    0.0132512528    0.8330533000          0.1282
H537       H    0.5416170146    0.1008549827    0.8728241916          0.1283
C538       C    0.5270735332    0.0029147273    0.8463366063          0.6236
F539       F    0.7275461051    0.0757803727    0.8603004966         -0.2281
F540       F    0.6988270961    0.1391692557    0.9034698339         -0.2014
F541       F    0.7026034573    0.1424086907    0.8188360775         -0.1981
F542       F    0.5192909360    0.9716945117    0.8870569702         -0.1986
F543       F    0.5230472654    0.9749395904    0.8024248446         -0.2019
F544       F    0.4943391782    0.0383180142    0.8455988633         -0.2286
C513       C    0.4896913723    0.8594599133    0.8489934481          -0.057
C514       C    0.5259770014    0.8266901163    0.8517688149          0.0023
C515       C    0.5191790330    0.7729883404    0.8544742656         -0.0834
C516       C    0.4765563436    0.7541068209    0.8547960386         -0.0572
C517       C    0.4402707144    0.7868766178    0.8520206718          0.0022
C518       C    0.4470693099    0.8405782458    0.8493229321         -0.0825
C519       C    0.4100655338    0.8798061379    0.8478767054          0.6213
H520       H    0.4951601935    0.9007098492    0.8471567437          0.1282
H521       H    0.4710875224    0.7128568849    0.8566327430          0.1283
C522       C    0.5561834360    0.7337603004    0.8559282034          0.6236
F523       F    0.4250213120    0.9279139809    0.8592529181         -0.2281
F524       F    0.3787866466    0.8690605008    0.8831481277         -0.2014
F525       F    0.3912813974    0.8828667625    0.8007948197         -0.1981
F526       F    0.5749624329    0.7307087180    0.9030108555         -0.1986
F527       F    0.5874598486    0.7444907657    0.8206567710         -0.2019
F528       F    0.5412282848    0.6856523095    0.8445597017         -0.2286
C497       C    0.5644566981    0.7016197183    0.0118591241          -0.057
C498       C    0.5936900542    0.6782339713    0.0463343540          0.0023
C499       C    0.6380901945    0.6919532390    0.0440903432         -0.0834
C500       C    0.6516617036    0.7280162541    0.0073223966         -0.0572
C501       C    0.6224283476    0.7514020011    0.9728471667          0.0022
C502       C    0.5780297673    0.7376766100    0.9750868302         -0.0825
C503       C    0.5436855966    0.7593700705    0.9384350356          0.6213
H504       H    0.5304075366    0.6907149061    0.0136519072          0.1282
H505       H    0.6857108652    0.7389210663    0.0055296136          0.1283
C506       C    0.6724359252    0.6702536551    0.0807377903          0.6236
F507       F    0.5068546983    0.7301458078    0.9396399492         -0.2281
F508       F    0.5574811270    0.7594522627    0.8887273969         -0.2014
F509       F    0.5316681172    0.8077765127    0.9512286335         -0.1981
F510       F    0.6844458511    0.6218488110    0.0679381063         -0.1986
F511       F    0.6586527708    0.6701763324    0.1304447891         -0.2019
F512       F    0.7092683835    0.6994717943    0.0795285294         -0.2286
C481       C    0.9899959091    0.2542045003    0.9803452060          -0.057
C482       C    0.9472258672    0.2731997122    0.9787872671          0.0023
C483       C    0.9405949063    0.3269699861    0.9771046843         -0.0834
C484       C    0.9767702375    0.3596587424    0.9775289004         -0.0572
C485       C    0.0195402794    0.3406635305    0.9790868394          0.0022
C486       C    0.0261702251    0.2868937426    0.9807770612         -0.0825
C487       C    0.0711248086    0.2620802938    0.9842473326          0.6213
H488       H    0.9948411468    0.2128345628    0.9818679422          0.1282
H489       H    0.9719249999    0.4010286799    0.9760061643          0.1283
C490       C    0.8956393076    0.3517839210    0.9736420521          0.6236
F491       F    0.0679065216    0.2118666488    0.9991324695         -0.2281
F492       F    0.0966995290    0.2856476456    0.0197110173         -0.2014
F493       F    0.0921486364    0.2621947123    0.9384024793         -0.1981
F494       F    0.8746225459    0.3516626976    0.0194886619         -0.1986
F495       F    0.8700632818    0.3282318946    0.9381771435         -0.2019
F496       F    0.8988565793    0.4019980521    0.9587645542         -0.2286
C465       C    0.7266283510    0.1757910805    0.0501115346          -0.057
C466       C    0.7690853236    0.1856998365    0.0675530110          0.0023
C467       C    0.7758550028    0.1957784795    0.1205278811         -0.0834
C468       C    0.7400601994    0.1960642159    0.1539044997         -0.0572
C469       C    0.6976032268    0.1861554598    0.1364630232          0.0022
C470       C    0.6908335521    0.1760844736    0.0834871199         -0.0825
C471       C    0.6459685700    0.1664923552    0.0600323756          0.6213
H472       H    0.7216434627    0.1683033433    0.0093002596          0.1282
H473       H    0.7450450876    0.2035519530    0.1947157746          0.1283
C474       C    0.8207199893    0.2053782546    0.1439815921          0.6236
F475       F    0.6472034309    0.1716352101    0.0076516759         -0.2281
F476       F    0.6160665237    0.2007500683    0.0772900512         -0.2014
F477       F    0.6311910116    0.1184457367    0.0697540188         -0.1981
F478       F    0.8354903374    0.2534239675    0.1342531714         -0.1986
F479       F    0.8506234848    0.1711225899    0.1267391799         -0.2019
F480       F    0.8194851329    0.2002430564    0.1963612585         -0.2286
C449       C    0.7394692567    0.0480756265    0.9005618369          -0.057
C450       C    0.7801497755    0.0434732279    0.9248400997          0.0023
C451       C    0.7942249933    0.9943325834    0.9410993583         -0.0834
C452       C    0.7670810366    0.9518526863    0.9329781106         -0.0572
C453       C    0.7264005177    0.9564550849    0.9086998478          0.0022
C454       C    0.7123233222    0.0055968732    0.8924478845         -0.0825
C455       C    0.6681728473    0.0153377354    0.8672195291          0.6213
H456       H    0.7287765965    0.0860038165    0.8883746345          0.1282
H457       H    0.7777736967    0.9139244963    0.9451653129          0.1283
C458       C    0.8383734905    0.9845928651    0.9663350089          0.6236
F459       F    0.6581407662    0.0664664574    0.8681835173         -0.2281
F460       F    0.6355416514    0.9907652405    0.8923377505         -0.2014
F461       F    0.6674208080    0.0008278654    0.8171019999         -0.1981
F462       F    0.8391177126    0.9991072229    0.0164488451         -0.1986
F463       F    0.8710084729    0.0091510426    0.9412204909         -0.2019
F464       F    0.8484035939    0.9334652870    0.9653783160         -0.2286
C433       C    0.1424386444    0.0623631006    0.8227192198          -0.057
C434       C    0.1047686859    0.0429645891    0.7989444777          0.0023
C435       C    0.0665202744    0.0375601565    0.8286479701         -0.0834
C436       C    0.0674197942    0.0512197184    0.8809052000         -0.0572
C437       C    0.1050897527    0.0706182299    0.9046799422          0.0022
C438       C    0.1433392264    0.0760151555    0.8749777752         -0.0825
C439       C    0.1864614967    0.0950774034    0.8971941521          0.6213
H440       H    0.1717734339    0.0661952044    0.7997053949          0.1282
H441       H    0.0380850046    0.0473876146    0.9039190250          0.1283
C442       C    0.0233990662    0.0184904016    0.8064329185          0.6236
F443       F    0.2200460466    0.0836298783    0.8647702423         -0.2281
F444       F    0.1958727419    0.0724325102    0.9429917075         -0.2014
F445       F    0.1870065014    0.1466937451    0.9038221249         -0.1981
F446       F    0.0228629827    0.9668761573    0.7998068041         -0.1986
F447       F    0.0139770736    0.0411347030    0.7606441402         -0.2019
F448       F    0.9898155785    0.0299304196    0.8388581536         -0.2286
C417       C    0.2259581134    0.0661065430    0.6535366602          -0.057
C418       C    0.1903043790    0.0568522512    0.6208920262          0.0023
C419       C    0.1979680534    0.0475834825    0.5679356188         -0.0834
C420       C    0.2407529382    0.0483767509    0.5495281844         -0.0572
C421       C    0.2764066727    0.0576310426    0.5821728185          0.0022
C422       C    0.2687417616    0.0669071372    0.6351272527         -0.0825
C423       C    0.3048700798    0.0790488000    0.6737505136          0.6213
H424       H    0.2198062215    0.0734302822    0.6941564347          0.1282
H425       H    0.2469048301    0.0410530116    0.5089084099          0.1283
C426       C    0.1618384985    0.0354491455    0.5293103847          0.6236
F427       F    0.2880792851    0.0996281155    0.7179052883         -0.2281
F428       F    0.3334059359    0.1141376863    0.6549673182         -0.2014
F429       F    0.3272602796    0.0365599532    0.6879236458         -0.1981
F430       F    0.1394531649    0.0779414586    0.5151458893         -0.1986
F431       F    0.1333054208    0.0003569582    0.5480788034         -0.2019
F432       F    0.1786280566    0.0148771557    0.4851536369         -0.2286
C401       C    0.9463494732    0.0950349454    0.7514060601          -0.057
C402       C    0.9892060839    0.1137838428    0.7500108948          0.0023
C403       C    0.0052658191    0.1413365603    0.7929752514         -0.0834
C404       C    0.9779044876    0.1495281575    0.8353713294         -0.0572
C405       C    0.9350478768    0.1307792601    0.8367664947          0.0022
C406       C    0.9189868942    0.1032334049    0.7937989028         -0.0825
C407       C    0.8725416583    0.0825893485    0.7904327781          0.6213
H408       H    0.9341599924    0.0740888859    0.7181462184          0.1282
H409       H    0.9900939684    0.1704742170    0.8686311711          0.1283
C410       C    0.0517098075    0.1619874791    0.7963381409          0.6236
F411       F    0.8621942766    0.0702442444    0.7407529726         -0.2281
F412       F    0.8428755871    0.1179287098    0.8059848226         -0.2014
F413       F    0.8669370081    0.0393212634    0.8186586081         -0.1981
F414       F    0.0573062852    0.2052518518    0.7681088389         -0.1986
F415       F    0.0813801426    0.1266552083    0.7807989007         -0.2019
F416       F    0.0620559417    0.1743394455    0.8460147111         -0.2286
C385       C    0.0172695914    0.2742414914    0.3573474639          -0.057
C386       C    0.0251900465    0.3271513412    0.3510053250          0.0023
C387       C    0.9894779621    0.3607911408    0.3449701752         -0.0834
C388       C    0.9473661255    0.3403634549    0.3450063029         -0.0572
C389       C    0.9394456704    0.2874536051    0.3513484418          0.0022
C390       C    0.9751582750    0.2538138744    0.3573758678         -0.0825
C391       C    0.9704358452    0.1955092484    0.3628522182          0.6213
H392       H    0.0448870850    0.2485831443    0.3617330693          0.1282
H393       H    0.9197486319    0.3660218020    0.3406206975          0.1283
C394       C    0.9942009121    0.4190958358    0.3394861011          0.6236
F395       F    0.0091970727    0.1715202208    0.3541592788         -0.2281
F396       F    0.9419710156    0.1757769121    0.3281473185         -0.2014
F397       F    0.9575133495    0.1815031445    0.4107250620         -0.1981
F398       F    0.0071248293    0.4330911443    0.2916132939         -0.1986
F399       F    0.0226552310    0.4388372857    0.3741900891         -0.2019
F400       F    0.9554402049    0.4430849323    0.3481713167         -0.2286
C369       C    0.0714885503    0.5303004245    0.3509861357          -0.057
C370       C    0.1102940349    0.5048008862    0.3380380379          0.0023
C371       C    0.1498220256    0.5324251190    0.3398507908         -0.0834
C372       C    0.1490829053    0.5844129419    0.3540016585         -0.0572
C373       C    0.1102774207    0.6099124802    0.3669497563          0.0022
C374       C    0.0707493733    0.5822896843    0.3651293905         -0.0825
C375       C    0.0265442254    0.6065257466    0.3767605951          0.6213
H376       H    0.0412034505    0.5088847578    0.3492821750          0.1282
H377       H    0.1793680051    0.6058286085    0.3557056191          0.1283
C378       C    0.1940271167    0.5081904937    0.3282119733          0.6236
F379       F    0.9936480133    0.5760843032    0.3590170237         -0.2281
F380       F    0.0217363168    0.6528213340    0.3533126769         -0.2014
F381       F    0.0197441967    0.6127360898    0.4279516014         -0.1981
F382       F    0.2008181347    0.5019824525    0.2770215024         -0.1986
F383       F    0.1988460311    0.4619030900    0.3516613264         -0.2019
F384       F    0.2269232720    0.5386333741    0.3459479318         -0.2286
C353       C    0.2878218750    0.5092016598    0.3839977700          -0.057
C354       C    0.2791252034    0.5443470535    0.4239458163          0.0023
C355       C    0.2430798055    0.5354719909    0.4565528176         -0.0834
C356       C    0.2169213532    0.4922592858    0.4477872138         -0.0572
C357       C    0.2256180248    0.4571138921    0.4078391675          0.0022
C358       C    0.2616595743    0.4659937696    0.3752281885         -0.0825
C359       C    0.2733111348    0.4313007946    0.3296284287          0.6213
H360       H    0.3154697918    0.5163946605    0.3589399822          0.1282
H361       H    0.1892734363    0.4850662851    0.4728450016          0.1283
C362       C    0.2314243967    0.5701697808    0.5021485996          0.6236
F363       F    0.3015320519    0.4555368263    0.2970769415         -0.2281
F364       F    0.2379282985    0.4189068018    0.3010144033         -0.2014
F365       F    0.2929730829    0.3872722898    0.3447496918         -0.1981
F366       F    0.2117657310    0.6141942377    0.4870179326         -0.1986
F367       F    0.2667972584    0.5825602964    0.5307719957         -0.2019
F368       F    0.2031996313    0.5459385639    0.5346961092         -0.2286
C337       C    0.1103126193    0.1626273434    0.4968786460          -0.057
C338       C    0.0934624083    0.1778077137    0.5449729771          0.0023
C339       C    0.0906614308    0.2308451234    0.5564943488         -0.0834
C340       C    0.1051144512    0.2665986255    0.5198958773         -0.0572
C341       C    0.1219646622    0.2514182552    0.4718015462          0.0022
C342       C    0.1247712359    0.1983808291    0.4602841588         -0.0825
C343       C    0.1438242457    0.1774996109    0.4099726949          0.6213
H344       H    0.1125500141    0.1217861272    0.4883802974          0.1282
H345       H    0.1028770564    0.3074398417    0.5283942259          0.1283
C346       C    0.0716140173    0.2517263251    0.6068097968          0.6236
F347       F    0.1533222681    0.1264163188    0.4144690424         -0.2281
F348       F    0.1815161229    0.2013452079    0.3971473307         -0.2014
F349       F    0.1158747357    0.1819491139    0.3699454156         -0.1981
F350       F    0.0995674146    0.2472705829    0.6468293531         -0.1986
F351       F    0.0339209790    0.2278959367    0.6196375277         -0.2019
F352       F    0.0621215912    0.3028096007    0.6023174335         -0.2286
loop_
_geom_bond_atom_site_label_1
_geom_bond_atom_site_label_2
_geom_bond_distance
_geom_bond_site_symmetry_2
_ccdc_geom_bond_type
O1           V9 1.822       .   S
O1          C11 1.280       .   A
O2           V9 1.824       .   S
O2          C12 1.280       .   A
O3           V9 1.823       .   S
O3          C13 1.280       .   A
O4           V9 1.823       .   S
O4          C14 1.280       .   A
O5          V10 1.823       .   S
O5          C14 1.280       .   A
O6          V10 1.823       .   S
O6          C13 1.280       .   A
O7          V10 1.822       .   S
O7          C12 1.279       .   A
O8          V10 1.824       .   S
O8          C11 1.280       .   A
V9          V10 2.337       .   S
C11        C341 1.755       .   S
C12        C370 1.396       .   S
C13        C357 1.531       .   S
C14        C386 0.929       .   S
O15         V23 1.822       .   S
O15         C25 1.280       .   A
O16         V23 1.824       .   S
O16         C26 1.280       .   A
O17         V23 1.823       .   S
O17         C27 1.280       .   A
O18         V23 1.823       .   S
O18         C28 1.280       .   A
O19         V24 1.823       .   S
O19         C28 1.280       .   A
O20         V24 1.823       .   S
O20         C27 1.280       .   A
O21         V24 1.822       .   S
O21         C26 1.279       .   A
O22         V24 1.824       .   S
O22         C25 1.280       .   A
V23         V24 2.337       .   S
C25        C338 1.755       .   S
C26        C434 1.405       .   S
C27        C402 1.526       .   S
C28        C418 0.933       .   S
O29         V37 1.822       .   S
O29         C39 1.280       .   A
O30         V37 1.824       .   S
O30         C40 1.280       .   A
O31         V37 1.823       .   S
O31         C41 1.280       .   A
O32         V37 1.823       .   S
O32         C42 1.280       .   A
O33         V38 1.823       .   S
O33         C42 1.280       .   A
O34         V38 1.823       .   S
O34         C41 1.280       .   A
O35         V38 1.822       .   S
O35         C40 1.279       .   A
O36         V38 1.824       .   S
O36         C39 1.280       .   A
V37         V38 2.337       .   S
C39        C466 1.598       .   S
C40        C405 1.526   1_655   S
C41        C450 1.531       .   S
C42        C482 1.608       .   S
O43         V51 1.822       .   S
O43         C53 1.280       .   A
O44         V51 1.824       .   S
O44         C54 1.280       .   A
O45         V51 1.823       .   S
O45         C55 1.280       .   A
O46         V51 1.823       .   S
O46         C56 1.280       .   A
O47         V52 1.823       .   S
O47         C56 1.280       .   A
O48         V52 1.823       .   S
O48         C55 1.280       .   A
O49         V52 1.822       .   S
O49         C54 1.279       .   A
O50         V52 1.824       .   S
O50         C53 1.280       .   A
V51         V52 2.337       .   S
C53        C501 1.750       .   S
C54        C530 1.402       .   S
C55        C453 1.531   1_565   S
C56        C514 0.925       .   S
O57         V65 1.822       .   S
O57         C67 1.280       .   A
O58         V65 1.824       .   S
O58         C68 1.280       .   A
O59         V65 1.823       .   S
O59         C69 1.280       .   A
O60         V65 1.823       .   S
O60         C70 1.280       .   A
O61         V66 1.823       .   S
O61         C70 1.280       .   A
O62         V66 1.823       .   S
O62         C69 1.280       .   A
O63         V66 1.822       .   S
O63         C68 1.279       .   A
O64         V66 1.824       .   S
O64         C67 1.280       .   A
V65         V66 2.337       .   S
C67        C581 1.599       .   S
C68        C546 1.516       .   S
C69        C354 1.531       .   S
C70        C562 1.603       .   S
O71         V79 1.822       .   S
O71         C81 1.280       .   A
O72         V79 1.824       .   S
O72         C82 1.280       .   A
O73         V79 1.823       .   S
O73         C83 1.280       .   A
O74         V79 1.823       .   S
O74         C84 1.280       .   A
O75         V80 1.823       .   S
O75         C84 1.280       .   A
O76         V80 1.823       .   S
O76         C83 1.280       .   A
O77         V80 1.822       .   S
O77         C82 1.279       .   A
O78         V80 1.824       .   S
O78         C81 1.280       .   A
V79         V80 2.337       .   S
C81        C498 1.750   1_554   S
C82        C610 1.400       .   S
C83        C549 1.516       .   S
C84        C594 0.929       .   S
O85         V93 1.822       .   S
O85         C95 1.280       .   A
O86         V93 1.824       .   S
O86         C96 1.280       .   A
O87         V93 1.823       .   S
O87         C97 1.280       .   A
O88         V93 1.823       .   S
O88         C98 1.280       .   A
O89         V94 1.823       .   S
O89         C98 1.280       .   A
O90         V94 1.823       .   S
O90         C97 1.280       .   A
O91         V94 1.822       .   S
O91         C96 1.279       .   A
O92         V94 1.824       .   S
O92         C95 1.280       .   A
V93         V94 2.337       .   S
C95        C626 1.755       .   S
C96        C373 1.396       .   S
C97        C642 1.533       .   S
C98        C658 0.925       .   S
O99        V107 1.822       .   S
O99        C109 1.280       .   A
O100       V107 1.824       .   S
O100       C110 1.280       .   A
O101       V107 1.823       .   S
O101       C111 1.280       .   A
O102       V107 1.823       .   S
O102       C112 1.280       .   A
O103       V108 1.823       .   S
O103       C112 1.280       .   A
O104       V108 1.823       .   S
O104       C111 1.280       .   A
O105       V108 1.822       .   S
O105       C110 1.279       .   A
O106       V108 1.824       .   S
O106       C109 1.280       .   A
V107       V108 2.337       .   S
C109       C629 1.755   1_545   S
C110       C437 1.405   1_554   S
C111       C674 1.521       .   S
C112       C690 0.932       .   S
O113       V121 1.822       .   S
O113       C123 1.280       .   A
O114       V121 1.824       .   S
O114       C124 1.280       .   A
O115       V121 1.823       .   S
O115       C125 1.280       .   A
O116       V121 1.823       .   S
O116       C126 1.280       .   A
O117       V122 1.823       .   S
O117       C126 1.280       .   A
O118       V122 1.823       .   S
O118       C125 1.280       .   A
O119       V122 1.822       .   S
O119       C124 1.279       .   A
O120       V122 1.824       .   S
O120       C123 1.280       .   A
V121       V122 2.337       .   S
C123       C722 1.605       .   S
C124       C677 1.521   1_666   S
C125       C706 1.529       .   S
C126       C738 1.606       .   S
O127       V135 1.822       .   S
O127       C137 1.280       .   A
O128       V135 1.824       .   S
O128       C138 1.280       .   A
O129       V135 1.823       .   S
O129       C139 1.280       .   A
O130       V135 1.823       .   S
O130       C140 1.280       .   A
O131       V136 1.823       .   S
O131       C140 1.280       .   A
O132       V136 1.823       .   S
O132       C139 1.280       .   A
O133       V136 1.822       .   S
O133       C138 1.279       .   A
O134       V136 1.824       .   S
O134       C137 1.280       .   A
V135       V136 2.337       .   S
C137       C786 1.599       .   S
C138       C754 1.523       .   S
C139       C645 1.533       .   S
C140       C773 1.608       .   S
O141       V149 1.822       .   S
O141       C151 1.280       .   A
O142       V149 1.824       .   S
O142       C152 1.280       .   A
O143       V149 1.823       .   S
O143       C153 1.280       .   A
O144       V149 1.823       .   S
O144       C154 1.280       .   A
O145       V150 1.823       .   S
O145       C154 1.280       .   A
O146       V150 1.823       .   S
O146       C153 1.280       .   A
O147       V150 1.822       .   S
O147       C152 1.279       .   A
O148       V150 1.824       .   S
O148       C151 1.280       .   A
V149       V150 2.337       .   S
C151       C805 1.752       .   S
C152       C613 1.400       .   S
C153       C757 1.523       .   S
C154       C818 0.931       .   S
O155       V163 1.822       .   S
O155       C165 1.280       .   A
O156       V163 1.824       .   S
O156       C166 1.280       .   A
O157       V163 1.823       .   S
O157       C167 1.280       .   A
O158       V163 1.823       .   S
O158       C168 1.280       .   A
O159       V164 1.823       .   S
O159       C168 1.280       .   A
O160       V164 1.823       .   S
O160       C167 1.280       .   A
O161       V164 1.822       .   S
O161       C166 1.279       .   A
O162       V164 1.824       .   S
O162       C165 1.280       .   A
V163       V164 2.337       .   S
C165       C802 1.752       .   S
C166       C533 1.402   1_545   S
C167       C709 1.529   1_545   S
C168       C837 0.930       .   S
O169       V177 1.822       .   S
O169       C179 1.280       .   A
O170       V177 1.824       .   S
O170       C180 1.280       .   A
O171       V177 1.823       .   S
O171       C181 1.280       .   A
O172       V177 1.823       .   S
O172       C182 1.280       .   A
O173       V178 1.823       .   S
O173       C182 1.280       .   A
O174       V178 1.823       .   S
O174       C181 1.280       .   A
O175       V178 1.822       .   S
O175       C180 1.279       .   A
O176       V178 1.824       .   S
O176       C179 1.280       .   A
V177       V178 2.337       .   S
C179       C725 1.605       .   S
C180       C853 1.517       .   S
C181       C866 1.532       .   S
C182       C565 1.603       .   S
O183       V191 1.822       .   S
O183       C193 1.280       .   A
O184       V191 1.824       .   S
O184       C194 1.280       .   A
O185       V191 1.823       .   S
O185       C195 1.280       .   A
O186       V191 1.823       .   S
O186       C196 1.280       .   A
O187       V192 1.823       .   S
O187       C196 1.280       .   A
O188       V192 1.823       .   S
O188       C195 1.280       .   A
O189       V192 1.822       .   S
O189       C194 1.279       .   A
O190       V192 1.824       .   S
O190       C193 1.280       .   A
V191       V192 2.337       .   S
C193       C882 1.737       .   S
C194       C898 1.386       .   S
C195       C850 1.517   1_545   S
C196       C693 0.932       .   S
O197       V205 1.822       .   S
O197       C207 1.280       .   A
O198       V205 1.824       .   S
O198       C208 1.280       .   A
O199       V205 1.823       .   S
O199       C209 1.280       .   A
O200       V205 1.823       .   S
O200       C210 1.280       .   A
O201       V206 1.823       .   S
O201       C210 1.280       .   A
O202       V206 1.823       .   S
O202       C209 1.280       .   A
O203       V206 1.822       .   S
O203       C208 1.279       .   A
O204       V206 1.824       .   S
O204       C207 1.280       .   A
V205       V206 2.337       .   S
C207       C885 1.737   1_566   S
C208       C930 1.392       .   S
C209       C914 1.523       .   S
C210       C517 0.925       .   S
O211       V219 1.822       .   S
O211       C221 1.280       .   A
O212       V219 1.824       .   S
O212       C222 1.280       .   A
O213       V219 1.823       .   S
O213       C223 1.280       .   A
O214       V219 1.823       .   S
O214       C224 1.280       .   A
O215       V220 1.823       .   S
O215       C224 1.280       .   A
O216       V220 1.823       .   S
O216       C223 1.280       .   A
O217       V220 1.822       .   S
O217       C222 1.279       .   A
O218       V220 1.824       .   S
O218       C221 1.280       .   A
V219       V220 2.337       .   S
C221       C946 1.746       .   S
C222       C965 1.392       .   S
C223       C869 1.532   1_545   S
C224       C389 0.929   1_655   S
O225       V233 1.822       .   S
O225       C235 1.280       .   A
O226       V233 1.824       .   S
O226       C236 1.280       .   A
O227       V233 1.823       .   S
O227       C237 1.280       .   A
O228       V233 1.823       .   S
O228       C238 1.280       .   A
O229       V234 1.823       .   S
O229       C238 1.280       .   A
O230       V234 1.823       .   S
O230       C237 1.280       .   A
O231       V234 1.822       .   S
O231       C236 1.279       .   A
O232       V234 1.824       .   S
O232       C235 1.280       .   A
V233       V234 2.337       .   S
C235       C789 1.599   1_556   S
C236       C978 1.523       .   S
C237       C917 1.523       .   S
C238       C485 1.608   1_455   S
O239       V247 1.822       .   S
O239       C249 1.280       .   A
O240       V247 1.824       .   S
O240       C250 1.280       .   A
O241       V247 1.823       .   S
O241       C251 1.280       .   A
O242       V247 1.823       .   S
O242       C252 1.280       .   A
O243       V248 1.823       .   S
O243       C252 1.280       .   A
O244       V248 1.823       .   S
O244       C251 1.280       .   A
O245       V248 1.822       .   S
O245       C250 1.279       .   A
O246       V248 1.824       .   S
O246       C249 1.280       .   A
V247       V248 2.337       .   S
C249       C949 1.746       .   S
C250       C994 1.392       .   S
C251       C981 1.523   1_655   S
C252       C821 0.931       .   S
O253       V261 1.822       .   S
O253       C263 1.280       .   A
O254       V261 1.824       .   S
O254       C264 1.280       .   A
O255       V261 1.823       .   S
O255       C265 1.280       .   A
O256       V261 1.823       .   S
O256       C266 1.280       .   A
O257       V262 1.823       .   S
O257       C266 1.280       .   A
O258       V262 1.823       .   S
O258       C265 1.280       .   A
O259       V262 1.822       .   S
O259       C264 1.279       .   A
O260       V262 1.824       .   S
O260       C263 1.280       .   A
V261       V262 2.337       .   S
C263      C1010 1.739       .   S
C264       C933 1.392       .   S
C265      C1029 1.530       .   S
C266       C834 0.930       .   S
O267       V275 1.822       .   S
O267       C277 1.280       .   A
O268       V275 1.824       .   S
O268       C278 1.280       .   A
O269       V275 1.823       .   S
O269       C279 1.280       .   A
O270       V275 1.823       .   S
O270       C280 1.280       .   A
O271       V276 1.823       .   S
O271       C280 1.280       .   A
O272       V276 1.823       .   S
O272       C279 1.280       .   A
O273       V276 1.822       .   S
O273       C278 1.279       .   A
O274       V276 1.824       .   S
O274       C277 1.280       .   A
V275       V276 2.337       .   S
C277      C1013 1.739       .   S
C278       C901 1.386       .   S
C279      C1045 1.517       .   S
C280       C421 0.933       .   S
O281       V289 1.822       .   S
O281       C291 1.280       .   A
O282       V289 1.824       .   S
O282       C292 1.280       .   A
O283       V289 1.823       .   S
O283       C293 1.280       .   A
O284       V289 1.823       .   S
O284       C294 1.280       .   A
O285       V290 1.823       .   S
O285       C294 1.280       .   A
O286       V290 1.823       .   S
O286       C293 1.280       .   A
O287       V290 1.822       .   S
O287       C292 1.279       .   A
O288       V290 1.824       .   S
O288       C291 1.280       .   A
V289       V290 2.337       .   S
C291       C469 1.598   1_554   S
C292      C1042 1.517       .   S
C293      C1058 1.527       .   S
C294       C770 1.608       .   S
O295       V303 1.822       .   S
O295       C305 1.280       .   A
O296       V303 1.824       .   S
O296       C306 1.280       .   A
O297       V303 1.823       .   S
O297       C307 1.280       .   A
O298       V303 1.823       .   S
O298       C308 1.280       .   A
O299       V304 1.823       .   S
O299       C308 1.280       .   A
O300       V304 1.823       .   S
O300       C307 1.280       .   A
O301       V304 1.822       .   S
O301       C306 1.279       .   A
O302       V304 1.824       .   S
O302       C305 1.280       .   A
V303       V304 2.337       .   S
C305      C1074 1.745       .   S
C306       C962 1.392   1_565   S
C307      C1061 1.527   1_565   S
C308       C661 0.925   1_655   S
O309       V317 1.822       .   S
O309       C319 1.280       .   A
O310       V317 1.824       .   S
O310       C320 1.280       .   A
O311       V317 1.823       .   S
O311       C321 1.280       .   A
O312       V317 1.823       .   S
O312       C322 1.280       .   A
O313       V318 1.823       .   S
O313       C322 1.280       .   A
O314       V318 1.823       .   S
O314       C321 1.280       .   A
O315       V318 1.822       .   S
O315       C320 1.279       .   A
O316       V318 1.824       .   S
O316       C319 1.280       .   A
V317       V318 2.337       .   S
C319       C578 1.599       .   S
C320      C1093 1.524       .   S
C321      C1026 1.530       .   S
C322       C741 1.606   1_455   S
O323       V331 1.822       .   S
O323       C333 1.280       .   A
O324       V331 1.824       .   S
O324       C334 1.280       .   A
O325       V331 1.823       .   S
O325       C335 1.280       .   A
O326       V331 1.823       .   S
O326       C336 1.280       .   A
O327       V332 1.823       .   S
O327       C336 1.280       .   A
O328       V332 1.823       .   S
O328       C335 1.280       .   A
O329       V332 1.822       .   S
O329       C334 1.279       .   A
O330       V332 1.824       .   S
O330       C333 1.280       .   A
V331       V332 2.337       .   S
C333      C1077 1.745       .   S
C334       C997 1.392   1_554   S
C335      C1090 1.524   1_654   S
C336       C597 0.929       .   S
C1089     C1090 1.401       .   A
C1089     C1094 1.395       .   A
C1089     H1096 1.082       .   S
C1090     C1091 1.407       .   A
C1091     C1092 1.395       .   A
C1091     C1098 1.523       .   S
C1092     C1093 1.401       .   A
C1092     H1097 1.082       .   S
C1093     C1094 1.407       .   A
C1094     C1095 1.523       .   S
C1095     F1099 1.359       .   S
C1095     F1100 1.351       .   S
C1095     F1101 1.347       .   S
C1098     F1102 1.347       .   S
C1098     F1103 1.351       .   S
C1098     F1104 1.359       .   S
C1073     C1074 1.401       .   A
C1073     C1078 1.395       .   A
C1073     H1080 1.082       .   S
C1074     C1075 1.407       .   A
C1075     C1076 1.395       .   A
C1075     C1082 1.523       .   S
C1076     C1077 1.401       .   A
C1076     H1081 1.082       .   S
C1077     C1078 1.407       .   A
C1078     C1079 1.523       .   S
C1079     F1083 1.359       .   S
C1079     F1084 1.351       .   S
C1079     F1085 1.347       .   S
C1082     F1086 1.347       .   S
C1082     F1087 1.351       .   S
C1082     F1088 1.359       .   S
C1057     C1058 1.401       .   A
C1057     C1062 1.395       .   A
C1057     H1064 1.082       .   S
C1058     C1059 1.407       .   A
C1059     C1060 1.395       .   A
C1059     C1066 1.523       .   S
C1060     C1061 1.401       .   A
C1060     H1065 1.082       .   S
C1061     C1062 1.407       .   A
C1062     C1063 1.523       .   S
C1063     F1067 1.359       .   S
C1063     F1068 1.351       .   S
C1063     F1069 1.347       .   S
C1066     F1070 1.347       .   S
C1066     F1071 1.351       .   S
C1066     F1072 1.359       .   S
C1041     C1042 1.401       .   A
C1041     C1046 1.395       .   A
C1041     H1048 1.082       .   S
C1042     C1043 1.407       .   A
C1043     C1044 1.395       .   A
C1043     C1050 1.523       .   S
C1044     C1045 1.401       .   A
C1044     H1049 1.082       .   S
C1045     C1046 1.407       .   A
C1046     C1047 1.523       .   S
C1047     F1051 1.359       .   S
C1047     F1052 1.351       .   S
C1047     F1053 1.347       .   S
C1050     F1054 1.347       .   S
C1050     F1055 1.351       .   S
C1050     F1056 1.359       .   S
C1025     C1026 1.401       .   A
C1025     C1030 1.395       .   A
C1025     H1032 1.082       .   S
C1026     C1027 1.407       .   A
C1027     C1028 1.395       .   A
C1027     C1034 1.523       .   S
C1028     C1029 1.401       .   A
C1028     H1033 1.082       .   S
C1029     C1030 1.407       .   A
C1030     C1031 1.523       .   S
C1031     F1035 1.359       .   S
C1031     F1036 1.351       .   S
C1031     F1037 1.347       .   S
C1034     F1038 1.347       .   S
C1034     F1039 1.351       .   S
C1034     F1040 1.359       .   S
C1009     C1010 1.401       .   A
C1009     C1014 1.395       .   A
C1009     H1016 1.082       .   S
C1010     C1011 1.407       .   A
C1011     C1012 1.395       .   A
C1011     C1018 1.523       .   S
C1012     C1013 1.401       .   A
C1012     H1017 1.082       .   S
C1013     C1014 1.407       .   A
C1014     C1015 1.523       .   S
C1015     F1019 1.359       .   S
C1015     F1020 1.351       .   S
C1015     F1021 1.347       .   S
C1018     F1022 1.347       .   S
C1018     F1023 1.351       .   S
C1018     F1024 1.359       .   S
C993       C994 1.401       .   A
C993       C998 1.395       .   A
C993      H1000 1.082       .   S
C994       C995 1.407       .   A
C995       C996 1.395       .   A
C995      C1002 1.523       .   S
C996       C997 1.401       .   A
C996      H1001 1.082       .   S
C997       C998 1.407       .   A
C998       C999 1.523       .   S
C999      F1003 1.359       .   S
C999      F1004 1.351       .   S
C999      F1005 1.347       .   S
C1002     F1006 1.347       .   S
C1002     F1007 1.351       .   S
C1002     F1008 1.359       .   S
C977       C978 1.401       .   A
C977       C982 1.395       .   A
C977       H984 1.082       .   S
C978       C979 1.407       .   A
C979       C980 1.395       .   A
C979       C986 1.523       .   S
C980       C981 1.401       .   A
C980       H985 1.082       .   S
C981       C982 1.407       .   A
C982       C983 1.523       .   S
C983       F987 1.359       .   S
C983       F988 1.351       .   S
C983       F989 1.347       .   S
C986       F990 1.347       .   S
C986       F991 1.351       .   S
C986       F992 1.359       .   S
C961       C962 1.401       .   A
C961       C966 1.395       .   A
C961       H968 1.082       .   S
C962       C963 1.407       .   A
C963       C964 1.395       .   A
C963       C970 1.523       .   S
C964       C965 1.401       .   A
C964       H969 1.082       .   S
C965       C966 1.407       .   A
C966       C967 1.523       .   S
C967       F971 1.359       .   S
C967       F972 1.351       .   S
C967       F973 1.347       .   S
C970       F974 1.347       .   S
C970       F975 1.351       .   S
C970       F976 1.359       .   S
C945       C946 1.401       .   A
C945       C950 1.395       .   A
C945       H952 1.082       .   S
C946       C947 1.407       .   A
C947       C948 1.395       .   A
C947       C954 1.523       .   S
C948       C949 1.401       .   A
C948       H953 1.082       .   S
C949       C950 1.407       .   A
C950       C951 1.523       .   S
C951       F955 1.359       .   S
C951       F956 1.351       .   S
C951       F957 1.347       .   S
C954       F958 1.347       .   S
C954       F959 1.351       .   S
C954       F960 1.359       .   S
C929       C930 1.401       .   A
C929       C934 1.395       .   A
C929       H936 1.082       .   S
C930       C931 1.407       .   A
C931       C932 1.395       .   A
C931       C938 1.523       .   S
C932       C933 1.401       .   A
C932       H937 1.082       .   S
C933       C934 1.407       .   A
C934       C935 1.523       .   S
C935       F939 1.359       .   S
C935       F940 1.351       .   S
C935       F941 1.347       .   S
C938       F942 1.347       .   S
C938       F943 1.351       .   S
C938       F944 1.359       .   S
C913       C914 1.401       .   A
C913       C918 1.395       .   A
C913       H920 1.082       .   S
C914       C915 1.407       .   A
C915       C916 1.395       .   A
C915       C922 1.523       .   S
C916       C917 1.401       .   A
C916       H921 1.082       .   S
C917       C918 1.407       .   A
C918       C919 1.523       .   S
C919       F923 1.359       .   S
C919       F924 1.351       .   S
C919       F925 1.347       .   S
C922       F926 1.347       .   S
C922       F927 1.351       .   S
C922       F928 1.359       .   S
C897       C898 1.401       .   A
C897       C902 1.395       .   A
C897       H904 1.082       .   S
C898       C899 1.407       .   A
C899       C900 1.395       .   A
C899       C906 1.523       .   S
C900       C901 1.401       .   A
C900       H905 1.082       .   S
C901       C902 1.407       .   A
C902       C903 1.523       .   S
C903       F907 1.359       .   S
C903       F908 1.351       .   S
C903       F909 1.347       .   S
C906       F910 1.347       .   S
C906       F911 1.351       .   S
C906       F912 1.359       .   S
C881       C882 1.401       .   A
C881       C886 1.395       .   A
C881       H888 1.082       .   S
C882       C883 1.407       .   A
C883       C884 1.395       .   A
C883       C890 1.523       .   S
C884       C885 1.401       .   A
C884       H889 1.082       .   S
C885       C886 1.407       .   A
C886       C887 1.523       .   S
C887       F891 1.359       .   S
C887       F892 1.351       .   S
C887       F893 1.347       .   S
C890       F894 1.347       .   S
C890       F895 1.351       .   S
C890       F896 1.359       .   S
C865       C866 1.401       .   A
C865       C870 1.395       .   A
C865       H872 1.082       .   S
C866       C867 1.407       .   A
C867       C868 1.395       .   A
C867       C874 1.523       .   S
C868       C869 1.401       .   A
C868       H873 1.082       .   S
C869       C870 1.407       .   A
C870       C871 1.523       .   S
C871       F875 1.359       .   S
C871       F876 1.351       .   S
C871       F877 1.347       .   S
C874       F878 1.347       .   S
C874       F879 1.351       .   S
C874       F880 1.359       .   S
C849       C850 1.401       .   A
C849       C854 1.395       .   A
C849       H856 1.082       .   S
C850       C851 1.407       .   A
C851       C852 1.395       .   A
C851       C858 1.523       .   S
C852       C853 1.401       .   A
C852       H857 1.082       .   S
C853       C854 1.407       .   A
C854       C855 1.523       .   S
C855       F859 1.359       .   S
C855       F860 1.351       .   S
C855       F861 1.347       .   S
C858       F862 1.347       .   S
C858       F863 1.351       .   S
C858       F864 1.359       .   S
C833       C834 1.401       .   A
C833       C838 1.395       .   A
C833       H840 1.082       .   S
C834       C835 1.407       .   A
C835       C836 1.395       .   A
C835       C842 1.523       .   S
C836       C837 1.401       .   A
C836       H841 1.082       .   S
C837       C838 1.407       .   A
C838       C839 1.523       .   S
C839       F843 1.359       .   S
C839       F844 1.351       .   S
C839       F845 1.347       .   S
C842       F846 1.347       .   S
C842       F847 1.351       .   S
C842       F848 1.359       .   S
C817       C818 1.401       .   A
C817       C822 1.395       .   A
C817       H824 1.082       .   S
C818       C819 1.407       .   A
C819       C820 1.395       .   A
C819       C826 1.523       .   S
C820       C821 1.401       .   A
C820       H825 1.082       .   S
C821       C822 1.407       .   A
C822       C823 1.523       .   S
C823       F827 1.359       .   S
C823       F828 1.351       .   S
C823       F829 1.347       .   S
C826       F830 1.347       .   S
C826       F831 1.351       .   S
C826       F832 1.359       .   S
C801       C802 1.401       .   A
C801       C806 1.395       .   A
C801       H808 1.082       .   S
C802       C803 1.407       .   A
C803       C804 1.395       .   A
C803       C810 1.523       .   S
C804       C805 1.401       .   A
C804       H809 1.082       .   S
C805       C806 1.407       .   A
C806       C807 1.523       .   S
C807       F811 1.359       .   S
C807       F812 1.351       .   S
C807       F813 1.347       .   S
C810       F814 1.347       .   S
C810       F815 1.351       .   S
C810       F816 1.359       .   S
C785       C786 1.401       .   A
C785       C790 1.395       .   A
C785       H792 1.082       .   S
C786       C787 1.407       .   A
C787       C788 1.395       .   A
C787       C794 1.523       .   S
C788       C789 1.401       .   A
C788       H793 1.082       .   S
C789       C790 1.407       .   A
C790       C791 1.523       .   S
C791       F795 1.359       .   S
C791       F796 1.351       .   S
C791       F797 1.347       .   S
C794       F798 1.347       .   S
C794       F799 1.351       .   S
C794       F800 1.359       .   S
C769       C770 1.401       .   A
C769       C774 1.395       .   A
C769       H776 1.082       .   S
C770       C771 1.407       .   A
C771       C772 1.395       .   A
C771       C778 1.523       .   S
C772       C773 1.401       .   A
C772       H777 1.082       .   S
C773       C774 1.407       .   A
C774       C775 1.523       .   S
C775       F779 1.359       .   S
C775       F780 1.351       .   S
C775       F781 1.347       .   S
C778       F782 1.347       .   S
C778       F783 1.351       .   S
C778       F784 1.359       .   S
C753       C754 1.401       .   A
C753       C758 1.395       .   A
C753       H760 1.082       .   S
C754       C755 1.407       .   A
C755       C756 1.395       .   A
C755       C762 1.523       .   S
C756       C757 1.401       .   A
C756       H761 1.082       .   S
C757       C758 1.407       .   A
C758       C759 1.523       .   S
C759       F763 1.359       .   S
C759       F764 1.351       .   S
C759       F765 1.347       .   S
C762       F766 1.347       .   S
C762       F767 1.351       .   S
C762       F768 1.359       .   S
C737       C738 1.401       .   A
C737       C742 1.395       .   A
C737       H744 1.082       .   S
C738       C739 1.407       .   A
C739       C740 1.395       .   A
C739       C746 1.523       .   S
C740       C741 1.401       .   A
C740       H745 1.082       .   S
C741       C742 1.407       .   A
C742       C743 1.523       .   S
C743       F747 1.359       .   S
C743       F748 1.351       .   S
C743       F749 1.347       .   S
C746       F750 1.347       .   S
C746       F751 1.351       .   S
C746       F752 1.359       .   S
C721       C722 1.401       .   A
C721       C726 1.395       .   A
C721       H728 1.082       .   S
C722       C723 1.407       .   A
C723       C724 1.395       .   A
C723       C730 1.523       .   S
C724       C725 1.401       .   A
C724       H729 1.082       .   S
C725       C726 1.407       .   A
C726       C727 1.523       .   S
C727       F731 1.359       .   S
C727       F732 1.351       .   S
C727       F733 1.347       .   S
C730       F734 1.347       .   S
C730       F735 1.351       .   S
C730       F736 1.359       .   S
C705       C706 1.401       .   A
C705       C710 1.395       .   A
C705       H712 1.082       .   S
C706       C707 1.407       .   A
C707       C708 1.395       .   A
C707       C714 1.523       .   S
C708       C709 1.401       .   A
C708       H713 1.082       .   S
C709       C710 1.407       .   A
C710       C711 1.523       .   S
C711       F715 1.359       .   S
C711       F716 1.351       .   S
C711       F717 1.347       .   S
C714       F718 1.347       .   S
C714       F719 1.351       .   S
C714       F720 1.359       .   S
C689       C690 1.401       .   A
C689       C694 1.395       .   A
C689       H696 1.082       .   S
C690       C691 1.407       .   A
C691       C692 1.395       .   A
C691       C698 1.523       .   S
C692       C693 1.401       .   A
C692       H697 1.082       .   S
C693       C694 1.407       .   A
C694       C695 1.523       .   S
C695       F699 1.359       .   S
C695       F700 1.351       .   S
C695       F701 1.347       .   S
C698       F702 1.347       .   S
C698       F703 1.351       .   S
C698       F704 1.359       .   S
C673       C674 1.401       .   A
C673       C678 1.395       .   A
C673       H680 1.082       .   S
C674       C675 1.407       .   A
C675       C676 1.395       .   A
C675       C682 1.523       .   S
C676       C677 1.401       .   A
C676       H681 1.082       .   S
C677       C678 1.407       .   A
C678       C679 1.523       .   S
C679       F683 1.359       .   S
C679       F684 1.351       .   S
C679       F685 1.347       .   S
C682       F686 1.347       .   S
C682       F687 1.351       .   S
C682       F688 1.359       .   S
C657       C658 1.401       .   A
C657       C662 1.395       .   A
C657       H664 1.082       .   S
C658       C659 1.407       .   A
C659       C660 1.395       .   A
C659       C666 1.523       .   S
C660       C661 1.401       .   A
C660       H665 1.082       .   S
C661       C662 1.407       .   A
C662       C663 1.523       .   S
C663       F667 1.359       .   S
C663       F668 1.351       .   S
C663       F669 1.347       .   S
C666       F670 1.347       .   S
C666       F671 1.351       .   S
C666       F672 1.359       .   S
C641       C642 1.401       .   A
C641       C646 1.395       .   A
C641       H648 1.082       .   S
C642       C643 1.407       .   A
C643       C644 1.395       .   A
C643       C650 1.523       .   S
C644       C645 1.401       .   A
C644       H649 1.082       .   S
C645       C646 1.407       .   A
C646       C647 1.523       .   S
C647       F651 1.359       .   S
C647       F652 1.351       .   S
C647       F653 1.347       .   S
C650       F654 1.347       .   S
C650       F655 1.351       .   S
C650       F656 1.359       .   S
C625       C626 1.401       .   A
C625       C630 1.395       .   A
C625       H632 1.082       .   S
C626       C627 1.407       .   A
C627       C628 1.395       .   A
C627       C634 1.523       .   S
C628       C629 1.401       .   A
C628       H633 1.082       .   S
C629       C630 1.407       .   A
C630       C631 1.523       .   S
C631       F635 1.359       .   S
C631       F636 1.351       .   S
C631       F637 1.347       .   S
C634       F638 1.347       .   S
C634       F639 1.351       .   S
C634       F640 1.359       .   S
C609       C610 1.401       .   A
C609       C614 1.395       .   A
C609       H616 1.082       .   S
C610       C611 1.407       .   A
C611       C612 1.395       .   A
C611       C618 1.523       .   S
C612       C613 1.401       .   A
C612       H617 1.082       .   S
C613       C614 1.407       .   A
C614       C615 1.523       .   S
C615       F619 1.359       .   S
C615       F620 1.351       .   S
C615       F621 1.347       .   S
C618       F622 1.347       .   S
C618       F623 1.351       .   S
C618       F624 1.359       .   S
C593       C594 1.401       .   A
C593       C598 1.395       .   A
C593       H600 1.082       .   S
C594       C595 1.407       .   A
C595       C596 1.395       .   A
C595       C602 1.523       .   S
C596       C597 1.401       .   A
C596       H601 1.082       .   S
C597       C598 1.407       .   A
C598       C599 1.523       .   S
C599       F603 1.359       .   S
C599       F604 1.351       .   S
C599       F605 1.347       .   S
C602       F606 1.347       .   S
C602       F607 1.351       .   S
C602       F608 1.359       .   S
C577       C578 1.401       .   A
C577       C582 1.395       .   A
C577       H584 1.082       .   S
C578       C579 1.407       .   A
C579       C580 1.395       .   A
C579       C586 1.523       .   S
C580       C581 1.401       .   A
C580       H585 1.082       .   S
C581       C582 1.407       .   A
C582       C583 1.523       .   S
C583       F587 1.359       .   S
C583       F588 1.351       .   S
C583       F589 1.347       .   S
C586       F590 1.347       .   S
C586       F591 1.351       .   S
C586       F592 1.359       .   S
C561       C562 1.401       .   A
C561       C566 1.395       .   A
C561       H568 1.082       .   S
C562       C563 1.407       .   A
C563       C564 1.395       .   A
C563       C570 1.523       .   S
C564       C565 1.401       .   A
C564       H569 1.082       .   S
C565       C566 1.407       .   A
C566       C567 1.523       .   S
C567       F571 1.359       .   S
C567       F572 1.351       .   S
C567       F573 1.347       .   S
C570       F574 1.347       .   S
C570       F575 1.351       .   S
C570       F576 1.359       .   S
C545       C546 1.401       .   A
C545       C550 1.395       .   A
C545       H552 1.082       .   S
C546       C547 1.407       .   A
C547       C548 1.395       .   A
C547       C554 1.523       .   S
C548       C549 1.401       .   A
C548       H553 1.082       .   S
C549       C550 1.407       .   A
C550       C551 1.523       .   S
C551       F555 1.359       .   S
C551       F556 1.351       .   S
C551       F557 1.347       .   S
C554       F558 1.347       .   S
C554       F559 1.351       .   S
C554       F560 1.359       .   S
C529       C530 1.401       .   A
C529       C534 1.395       .   A
C529       H536 1.082       .   S
C530       C531 1.407       .   A
C531       C532 1.395       .   A
C531       C538 1.523       .   S
C532       C533 1.401       .   A
C532       H537 1.082       .   S
C533       C534 1.407       .   A
C534       C535 1.523       .   S
C535       F539 1.359       .   S
C535       F540 1.351       .   S
C535       F541 1.347       .   S
C538       F542 1.347       .   S
C538       F543 1.351       .   S
C538       F544 1.359       .   S
C513       C514 1.401       .   A
C513       C518 1.395       .   A
C513       H520 1.082       .   S
C514       C515 1.407       .   A
C515       C516 1.395       .   A
C515       C522 1.523       .   S
C516       C517 1.401       .   A
C516       H521 1.082       .   S
C517       C518 1.407       .   A
C518       C519 1.523       .   S
C519       F523 1.359       .   S
C519       F524 1.351       .   S
C519       F525 1.347       .   S
C522       F526 1.347       .   S
C522       F527 1.351       .   S
C522       F528 1.359       .   S
C497       C498 1.401       .   A
C497       C502 1.395       .   A
C497       H504 1.082       .   S
C498       C499 1.407       .   A
C499       C500 1.395       .   A
C499       C506 1.523       .   S
C500       C501 1.401       .   A
C500       H505 1.082       .   S
C501       C502 1.407       .   A
C502       C503 1.523       .   S
C503       F507 1.359       .   S
C503       F508 1.351       .   S
C503       F509 1.347       .   S
C506       F510 1.347       .   S
C506       F511 1.351       .   S
C506       F512 1.359       .   S
C481       C482 1.401       .   A
C481       C486 1.395       .   A
C481       H488 1.082       .   S
C482       C483 1.407       .   A
C483       C484 1.395       .   A
C483       C490 1.523       .   S
C484       C485 1.401       .   A
C484       H489 1.082       .   S
C485       C486 1.407       .   A
C486       C487 1.523       .   S
C487       F491 1.359       .   S
C487       F492 1.351       .   S
C487       F493 1.347       .   S
C490       F494 1.347       .   S
C490       F495 1.351       .   S
C490       F496 1.359       .   S
C465       C466 1.401       .   A
C465       C470 1.395       .   A
C465       H472 1.082       .   S
C466       C467 1.407       .   A
C467       C468 1.395       .   A
C467       C474 1.523       .   S
C468       C469 1.401       .   A
C468       H473 1.082       .   S
C469       C470 1.407       .   A
C470       C471 1.523       .   S
C471       F475 1.359       .   S
C471       F476 1.351       .   S
C471       F477 1.347       .   S
C474       F478 1.347       .   S
C474       F479 1.351       .   S
C474       F480 1.359       .   S
C449       C450 1.401       .   A
C449       C454 1.395       .   A
C449       H456 1.082       .   S
C450       C451 1.407       .   A
C451       C452 1.395       .   A
C451       C458 1.523       .   S
C452       C453 1.401       .   A
C452       H457 1.082       .   S
C453       C454 1.407       .   A
C454       C455 1.523       .   S
C455       F459 1.359       .   S
C455       F460 1.351       .   S
C455       F461 1.347       .   S
C458       F462 1.347       .   S
C458       F463 1.351       .   S
C458       F464 1.359       .   S
C433       C434 1.401       .   A
C433       C438 1.395       .   A
C433       H440 1.082       .   S
C434       C435 1.407       .   A
C435       C436 1.395       .   A
C435       C442 1.523       .   S
C436       C437 1.401       .   A
C436       H441 1.082       .   S
C437       C438 1.407       .   A
C438       C439 1.523       .   S
C439       F443 1.359       .   S
C439       F444 1.351       .   S
C439       F445 1.347       .   S
C442       F446 1.347       .   S
C442       F447 1.351       .   S
C442       F448 1.359       .   S
C417       C418 1.401       .   A
C417       C422 1.395       .   A
C417       H424 1.082       .   S
C418       C419 1.407       .   A
C419       C420 1.395       .   A
C419       C426 1.523       .   S
C420       C421 1.401       .   A
C420       H425 1.082       .   S
C421       C422 1.407       .   A
C422       C423 1.523       .   S
C423       F427 1.359       .   S
C423       F428 1.351       .   S
C423       F429 1.347       .   S
C426       F430 1.347       .   S
C426       F431 1.351       .   S
C426       F432 1.359       .   S
C401       C402 1.401       .   A
C401       C406 1.395       .   A
C401       H408 1.082       .   S
C402       C403 1.407       .   A
C403       C404 1.395       .   A
C403       C410 1.523       .   S
C404       C405 1.401       .   A
C404       H409 1.082       .   S
C405       C406 1.407       .   A
C406       C407 1.523       .   S
C407       F411 1.359       .   S
C407       F412 1.351       .   S
C407       F413 1.347       .   S
C410       F414 1.347       .   S
C410       F415 1.351       .   S
C410       F416 1.359       .   S
C385       C386 1.401       .   A
C385       C390 1.395       .   A
C385       H392 1.082       .   S
C386       C387 1.407       .   A
C387       C388 1.395       .   A
C387       C394 1.523       .   S
C388       C389 1.401       .   A
C388       H393 1.082       .   S
C389       C390 1.407       .   A
C390       C391 1.523       .   S
C391       F395 1.359       .   S
C391       F396 1.351       .   S
C391       F397 1.347       .   S
C394       F398 1.347       .   S
C394       F399 1.351       .   S
C394       F400 1.359       .   S
C369       C370 1.401       .   A
C369       C374 1.395       .   A
C369       H376 1.082       .   S
C370       C371 1.407       .   A
C371       C372 1.395       .   A
C371       C378 1.523       .   S
C372       C373 1.401       .   A
C372       H377 1.082       .   S
C373       C374 1.407       .   A
C374       C375 1.523       .   S
C375       F379 1.359       .   S
C375       F380 1.351       .   S
C375       F381 1.347       .   S
C378       F382 1.347       .   S
C378       F383 1.351       .   S
C378       F384 1.359       .   S
C353       C354 1.401       .   A
C353       C358 1.395       .   A
C353       H360 1.082       .   S
C354       C355 1.407       .   A
C355       C356 1.395       .   A
C355       C362 1.523       .   S
C356       C357 1.401       .   A
C356       H361 1.082       .   S
C357       C358 1.407       .   A
C358       C359 1.523       .   S
C359       F363 1.359       .   S
C359       F364 1.351       .   S
C359       F365 1.347       .   S
C362       F366 1.347       .   S
C362       F367 1.351       .   S
C362       F368 1.359       .   S
C337       C338 1.401       .   A
C337       C342 1.395       .   A
C337       H344 1.082       .   S
C338       C339 1.407       .   A
C339       C340 1.395       .   A
C339       C346 1.523       .   S
C340       C341 1.401       .   A
C340       H345 1.082       .   S
C341       C342 1.407       .   A
C342       C343 1.523       .   S
C343       F347 1.359       .   S
C343       F348 1.351       .   S
C343       F349 1.347       .   S
C346       F350 1.347       .   S
C346       F351 1.351       .   S
C346       F352 1.359       .   S
