data_pcl_v1-on15-3D_1-oe23
_audit_creation_date              2023-10-26
_audit_creation_method            'newmof'
_symmetry_space_group_name_H-M    'P1'
_symmetry_Int_Tables_number       1
_symmetry_cell_setting            triclinic
loop_
_symmetry_equiv_pos_as_xyz
  x,y,z
_cell_length_a                    61.164677096132664
_cell_length_b                    66.03248506256112
_cell_length_c                    59.10746371691477
_cell_angle_alpha                 89.99997804791357
_cell_angle_beta                  89.99999858985353
_cell_angle_gamma                 90.00005385824907
loop_
_atom_site_label
_atom_site_type_symbol
_atom_site_fract_x
_atom_site_fract_y
_atom_site_fract_z
_atom_site_charge
C1         C    0.3373429452    0.8241043851    0.4257039814           -0.01
C2         C    0.3302374503    0.8063280263    0.4147824831           -0.01
C3         C    0.3080707705    0.8037326190    0.4095754214           -0.01
C4         C    0.2929014670    0.8187136400    0.4154687808           -0.01
C5         C    0.2704139863    0.8165771082    0.4110555216           -0.01
C6         C    0.2555944874    0.8317113929    0.4177425273           -0.01
C7         C    0.2630622301    0.8490522518    0.4291378580           -0.01
C8         C    0.2488602863    0.8644751085    0.4364112575           -0.01
C9         C    0.2571696372    0.8813908319    0.4480104072           -0.01
C10        C    0.2796643109    0.8825840446    0.4524742195           -0.01
C11        C    0.2854886749    0.8511253924    0.4336119183           -0.01
C12        C    0.3005196249    0.8361896281    0.4264571416           -0.01
C13        C    0.4305460206    0.8317115673    0.4345839751           -0.01
C14        C    0.2893451315    0.8998424157    0.4642894609           -0.01
C15        C    0.2949317488    0.8980361971    0.4871585743           -0.01
C16        C    0.3077920144    0.9128362194    0.4975032807           -0.01
C17        C    0.3155386998    0.9294064671    0.4849668994           -0.01
C18        C    0.3090202825    0.9316442950    0.4622868671           -0.01
C19        C    0.2959509167    0.9169300993    0.4520319214           -0.01
C20        C    0.3325961873    0.9424047173    0.4948956658           -0.01
C21        C    0.3334858419    0.8492718321    0.4943292535           -0.01
C22        C    0.3444532857    0.8531144793    0.5147762720           -0.01
C23        C    0.3571236310    0.8706995895    0.5170762031           -0.01
C24        C    0.3596753168    0.8838592902    0.4986338293           -0.01
C25        C    0.3737139719    0.9006810983    0.4994321597           -0.01
C26        C    0.3770732825    0.9125877393    0.4800594916           -0.01
C27        C    0.3662126666    0.9079822996    0.4597423024           -0.01
C28        C    0.3697934343    0.9190195462    0.4398330077           -0.01
C29        C    0.3594377768    0.9132283045    0.4196912030           -0.01
C30        C    0.3450782050    0.8965979601    0.4196035897           -0.01
C31        C    0.3516521956    0.8915383926    0.4590370226           -0.01
C32        C    0.3483747562    0.8795030950    0.4785312745           -0.01
C33        C    0.2986305456    0.7701393728    0.4743490397           -0.01
C34        C    0.3112504436    0.8590962420    0.3391631606           -0.01
Cu35      Cu    0.3236463935    0.8636391560    0.4474158390             1.0
N36        N    0.3223133917    0.8385847834    0.4308629230           -0.01
N37        N    0.2928948676    0.8674611217    0.4452278621           -0.01
N38        N    0.3350375551    0.8630342507    0.4773649307           -0.01
N39        N    0.3413587289    0.8865611419    0.4393334851           -0.01
N40        N    0.4407963788    0.8474569032    0.4267615679           -0.01
N41        N    0.3442029559    0.9542380318    0.4820685168           -0.01
N42        N    0.2778472187    0.7665722797    0.4721259122           -0.01
N43        N    0.3243534466    0.8501327853    0.3250440031           -0.01
C44        C    0.3361284807    0.8887177252    0.3982596865           -0.01
C45        C    0.3502952576    0.8838590628    0.3803898664           -0.01
C46        C    0.3422843469    0.8744499145    0.3609441219           -0.01
C47        C    0.3199027695    0.8699710605    0.3589862887           -0.01
C48        C    0.3056631183    0.8754529967    0.3765750970           -0.01
C49        C    0.3137523970    0.8847336251    0.3960947387           -0.01
C50        C    0.4064238807    0.8309844211    0.4348673545           -0.01
C51        C    0.3958968309    0.8132463653    0.4420828722           -0.01
C52        C    0.3732355914    0.8112927073    0.4400452123           -0.01
C53        C    0.3607267167    0.8270921475    0.4308210464           -0.01
C54        C    0.3711016159    0.8451540663    0.4246125069           -0.01
C55        C    0.3937592654    0.8471603184    0.4266232469           -0.01
H56        H    0.3417881059    0.7946413045    0.4100645616           -0.01
H57        H    0.3028081578    0.7900290704    0.4010935987           -0.01
H58        H    0.2642891915    0.8031881430    0.4025679136           -0.01
H59        H    0.2383469194    0.8297693627    0.4142082949           -0.01
H60        H    0.2314691462    0.8634615026    0.4331601377           -0.01
H61        H    0.2462346558    0.8933104509    0.4535064340           -0.01
H62        H    0.4395599387    0.8186091982    0.4404497093           -0.01
H63        H    0.2902351535    0.8846956079    0.4966563546           -0.01
H64        H    0.3128328311    0.9106689049    0.5149075532           -0.01
H65        H    0.3148855402    0.9442003963    0.4521793656           -0.01
H66        H    0.2919685966    0.9183333252    0.4342437784           -0.01
H67        H    0.3375928360    0.9392323288    0.5120895553           -0.01
H68        H    0.3436738088    0.8423399667    0.5285733888           -0.01
H69        H    0.3656706748    0.8734884287    0.5328166362           -0.01
H70        H    0.3824784211    0.9043214060    0.5148305865           -0.01
H71        H    0.3884072021    0.9251617083    0.4808812175           -0.01
H72        H    0.3809951407    0.9317195664    0.4396959887           -0.01
H73        H    0.3628226348    0.9214730279    0.4042463360           -0.01
H74        H    0.3103624884    0.7579155735    0.4730595705           -0.01
H75        H    0.2937005869    0.8573609288    0.3375672890           -0.01
H76        H    0.3676898973    0.8866847709    0.3818437189           -0.01
H77        H    0.3536264961    0.8704381581    0.3476091648           -0.01
H78        H    0.2883408462    0.8721944143    0.3754128055           -0.01
H79        H    0.3025650174    0.8888280183    0.4094574760           -0.01
H80        H    0.4052902638    0.8006278525    0.4486098585           -0.01
H81        H    0.3655256819    0.7972485071    0.4451463104           -0.01
H82        H    0.3618410995    0.8572399288    0.4169928366           -0.01
H83        H    0.4013868703    0.8610499222    0.4209134925           -0.01
C84        C    0.3237509848    0.8293573010    0.4899451051           -0.01
C85        C    0.3019338093    0.8271344832    0.4833513592           -0.01
C86        C    0.2936247979    0.8079045566    0.4781688499           -0.01
C87        C    0.3070759190    0.7905917958    0.4791652215           -0.01
C88        C    0.3291252762    0.7924789249    0.4853140369           -0.01
C89        C    0.3378007775    0.8112467464    0.4909519589           -0.01
H90        H    0.2913164744    0.8402246065    0.4823474272           -0.01
H91        H    0.2766373639    0.8065811174    0.4732227428           -0.01
H92        H    0.3396447919    0.7792905384    0.4859887391           -0.01
H93        H    0.3548682490    0.8125037854    0.4956093499           -0.01
C94        C    0.1518255062    0.6376929077    0.5593266600           -0.01
C95        C    0.1597538563    0.6367145227    0.5369834556           -0.01
C96        C    0.1817676600    0.6321234032    0.5329281070           -0.01
C97        C    0.1959858774    0.6287362266    0.5511062017           -0.01
C98        C    0.2183234614    0.6245372867    0.5478868603           -0.01
C99        C    0.2322219193    0.6217335513    0.5665708132           -0.01
C100       C    0.2239917984    0.6233147810    0.5886889472           -0.01
C101       C    0.2372824438    0.6208883321    0.6079047992           -0.01
C102       C    0.2282584738    0.6228901432    0.6296623938           -0.01
C103       C    0.2059913328    0.6275645048    0.6319730094           -0.01
C104       C    0.2017231631    0.6275864431    0.5918765035           -0.01
C105       C    0.1875743042    0.6299445764    0.5731622361           -0.01
C106       C    0.0588592835    0.6482271330    0.5670594545           -0.01
C107       C    0.1955854234    0.6296825320    0.6541120473           -0.01
C108       C    0.1913407727    0.6490249924    0.6627296342           -0.01
C109       C    0.1778884710    0.6513525922    0.6816225595           -0.01
C110       C    0.1682119855    0.6343804695    0.6918369114           -0.01
C111       C    0.1733599805    0.6149184305    0.6837727858           -0.01
C112       C    0.1870183061    0.6126065184    0.6650151777           -0.01
C113       C    0.1507017107    0.6375257425    0.7085801487           -0.01
C114       C    0.1571921160    0.6800812504    0.6162702972           -0.01
C115       C    0.1470152460    0.6953087337    0.6291161668           -0.01
C116       C    0.1331172011    0.6899747437    0.6470268803           -0.01
C117       C    0.1285819154    0.6695122771    0.6513430223           -0.01
C118       C    0.1133047457    0.6634454663    0.6677437997           -0.01
C119       C    0.1080170043    0.6428856494    0.6703554135           -0.01
C120       C    0.1181548138    0.6281205685    0.6568118556           -0.01
C121       C    0.1126880841    0.6075537740    0.6583056812           -0.01
C122       C    0.1224263256    0.5935121224    0.6436510038           -0.01
C123       C    0.1380443845    0.6000286681    0.6277834101           -0.01
C124       C    0.1339263748    0.6340474710    0.6408496035           -0.01
C125       C    0.1391490618    0.6547689370    0.6381639979           -0.01
C126       C    0.1971687426    0.6981349084    0.5302630685           -0.01
C127       C    0.1705803937    0.5511437728    0.5547410827           -0.01
Cu128     Cu    0.1634375756    0.6356089293    0.6090576534             1.0
N129       N    0.1659066169    0.6339661390    0.5766627247           -0.01
N130       N    0.1936455982    0.6298009298    0.6131068289           -0.01
N131       N    0.1536806999    0.6604347431    0.6219113126           -0.01
N132       N    0.1435604805    0.6199818949    0.6272003244           -0.01
N133       N    0.0469973222    0.6355525023    0.5785462362           -0.01
N134       N    0.1375428197    0.6227981002    0.7138174412           -0.01
N135       N    0.2180355218    0.6964561616    0.5265775281           -0.01
N136       N    0.1575187204    0.5450946470    0.5387688236           -0.01
C137       C    0.1464868375    0.5861051064    0.6104468231           -0.01
C138       C    0.1318466485    0.5752769447    0.5967407164           -0.01
C139       C    0.1395732882    0.5636303492    0.5787370965           -0.01
C140       C    0.1621178416    0.5624614561    0.5743412826           -0.01
C141       C    0.1767666026    0.5727745103    0.5885355016           -0.01
C142       C    0.1689759357    0.5845447086    0.6064432324           -0.01
C143       C    0.0829540599    0.6469703266    0.5674855462           -0.01
C144       C    0.0952188323    0.6600627771    0.5537594390           -0.01
C145       C    0.1178369973    0.6576455087    0.5518329624           -0.01
C146       C    0.1285638203    0.6421235922    0.5636766770           -0.01
C147       C    0.1164765659    0.6296668820    0.5781974772           -0.01
C148       C    0.0938564106    0.6320383397    0.5801635433           -0.01
H149       H    0.1489377822    0.6392402474    0.5227585234           -0.01
H150       H    0.1876622725    0.6313358523    0.5156659068           -0.01
H151       H    0.2250513793    0.6235352142    0.5309689517           -0.01
H152       H    0.2493709650    0.6185347583    0.5637324915           -0.01
H153       H    0.2545151931    0.6174746407    0.6061214029           -0.01
H154       H    0.2384828875    0.6209188717    0.6444534671           -0.01
H155       H    0.0512259171    0.6595860244    0.5564649627           -0.01
H156       H    0.1975668194    0.6623343207    0.6541646555           -0.01
H157       H    0.1739352384    0.6664978255    0.6873645958           -0.01
H158       H    0.1660011492    0.6015764802    0.6912300972           -0.01
H159       H    0.1899584486    0.5975896085    0.6582952966           -0.01
H160       H    0.1468615707    0.6529646044    0.7132332431           -0.01
H161       H    0.1493572722    0.7111306733    0.6249215003           -0.01
H162       H    0.1251926451    0.7017829848    0.6567442113           -0.01
H163       H    0.1050784028    0.6746070064    0.6781341291           -0.01
H164       H    0.0957723564    0.6385920593    0.6826840379           -0.01
H165       H    0.1005158097    0.6024337637    0.6703184690           -0.01
H166       H    0.1176061707    0.5777492947    0.6444706553           -0.01
H167       H    0.1863910249    0.7036337427    0.5170945196           -0.01
H168       H    0.1881136534    0.5493601327    0.5530212152           -0.01
H169       H    0.1143739626    0.5764338645    0.5994782835           -0.01
H170       H    0.1279117516    0.5557860817    0.5680954436           -0.01
H171       H    0.1942166236    0.5720532252    0.5855028521           -0.01
H172       H    0.1804781994    0.5923845050    0.6171729484           -0.01
H173       H    0.0872030281    0.6717502136    0.5439345843           -0.01
H174       H    0.1268939003    0.6675746329    0.5406544450           -0.01
H175       H    0.1243462040    0.6173707212    0.5869823162           -0.01
H176       H    0.0848624858    0.6216928534    0.5909096959           -0.01
C177       C    0.1682449277    0.6850615929    0.5949656582           -0.01
C178       C    0.1898097841    0.6792281688    0.5906187769           -0.01
C179       C    0.1993471816    0.6833687540    0.5695593018           -0.01
C180       C    0.1873795141    0.6931512296    0.5523541830           -0.01
C181       C    0.1655872637    0.6988049624    0.5561527398           -0.01
C182       C    0.1557450397    0.6952652371    0.5769521153           -0.01
H183       H    0.1992907588    0.6715998122    0.6035297317           -0.01
H184       H    0.2161154253    0.6787875894    0.5666645160           -0.01
H185       H    0.1561945978    0.7062108400    0.5429956875           -0.01
H186       H    0.1388875322    0.6996546698    0.5796436587           -0.01
C187       C    0.1518160962    0.3596116663    0.4602865269           -0.01
C188       C    0.1597446298    0.3605898732    0.4826296717           -0.01
C189       C    0.1817586278    0.3651803523    0.4866848488           -0.01
C190       C    0.1959768485    0.3685670631    0.4685066421           -0.01
C191       C    0.2183146069    0.3727653510    0.4717258110           -0.01
C192       C    0.2322130435    0.3755686287    0.4530417502           -0.01
C193       C    0.2239827186    0.3739875866    0.4309236798           -0.01
C194       C    0.2372733254    0.3764135945    0.4117077254           -0.01
C195       C    0.2282491385    0.3744119954    0.3899502014           -0.01
C196       C    0.2059818117    0.3697382861    0.3876397593           -0.01
C197       C    0.2017139065    0.3697165746    0.4277362958           -0.01
C198       C    0.1875650853    0.3673589065    0.4464506715           -0.01
C199       C    0.0588494383    0.3490801689    0.4525544286           -0.01
C200       C    0.1955756787    0.3676205108    0.3655008023           -0.01
C201       C    0.1913302655    0.3482781541    0.3568833063           -0.01
C202       C    0.1778777539    0.3459509044    0.3379904843           -0.01
C203       C    0.1682018199    0.3629232874    0.3277761482           -0.01
C204       C    0.1733505781    0.3823851946    0.3358401761           -0.01
C205       C    0.1870091120    0.3846967501    0.3545976795           -0.01
C206       C    0.1506913197    0.3597784898    0.3110330457           -0.01
C207       C    0.1571807834    0.3172230220    0.4033429843           -0.01
C208       C    0.1470032730    0.3019958073    0.3904972351           -0.01
C209       C    0.1331053043    0.3073301629    0.3725866040           -0.01
C210       C    0.1285707364    0.3277927527    0.3682704302           -0.01
C211       C    0.1132936794    0.3338599737    0.3518697427           -0.01
C212       C    0.1080066706    0.3544199403    0.3492581022           -0.01
C213       C    0.1181451082    0.3691847557    0.3628015415           -0.01
C214       C    0.1126791187    0.3897517080    0.3613076904           -0.01
C215       C    0.1224179693    0.4037931086    0.3759622543           -0.01
C216       C    0.1380358955    0.3972761413    0.3918297571           -0.01
C217       C    0.1339165586    0.3632574272    0.3787636997           -0.01
C218       C    0.1391385076    0.3425358136    0.3814493330           -0.01
C219       C    0.1971573205    0.2991683988    0.4893499845           -0.01
C220       C    0.1705741707    0.4461602585    0.4648716991           -0.01
Cu221     Cu    0.1634279127    0.3616951767    0.4105554441             1.0
N222       N    0.1658972282    0.3633379753    0.4429503501           -0.01
N223       N    0.1936361204    0.3675022733    0.4065060349           -0.01
N224       N    0.1536700465    0.3368696189    0.3977019323           -0.01
N225       N    0.1435512675    0.3773227529    0.3924128660           -0.01
N226       N    0.0469878633    0.3617551213    0.4410676918           -0.01
N227       N    0.1375329312    0.3745065078    0.3057958009           -0.01
N228       N    0.2180241853    0.3008465381    0.4930353707           -0.01
N229       N    0.1575128236    0.4522098104    0.4808440323           -0.01
C230       C    0.1464789709    0.4111994970    0.4091662401           -0.01
C231       C    0.1318392675    0.4220281257    0.4228724173           -0.01
C232       C    0.1395664511    0.4336745381    0.4408759456           -0.01
C233       C    0.1621110762    0.4348427761    0.4452715949           -0.01
C234       C    0.1767593671    0.4245292533    0.4310773039           -0.01
C235       C    0.1689681525    0.4127592402    0.4131696655           -0.01
C236       C    0.0829442576    0.3503362622    0.4521281611           -0.01
C237       C    0.0952086433    0.3372434838    0.4658542218           -0.01
C238       C    0.1178269092    0.3396600886    0.4677805296           -0.01
C239       C    0.1285542200    0.3551816583    0.4559366897           -0.01
C240       C    0.1164673239    0.3676386892    0.4414159367           -0.01
C241       C    0.0938470691    0.3652678951    0.4394500394           -0.01
H242       H    0.1489285577    0.3580645039    0.4968546890           -0.01
H243       H    0.1876533832    0.3659677724    0.5039470045           -0.01
H244       H    0.2250426733    0.3737672671    0.4886436685           -0.01
H245       H    0.2493622246    0.3787669221    0.4558799395           -0.01
H246       H    0.2545062110    0.3798267812    0.4134909881           -0.01
H247       H    0.2384735263    0.3763829276    0.3751590490           -0.01
H248       H    0.0512157276    0.3377215297    0.4631490104           -0.01
H249       H    0.1975558834    0.3349686634    0.3654482824           -0.01
H250       H    0.1739239310    0.3308057735    0.3322485237           -0.01
H251       H    0.1659921840    0.3957273436    0.3283828753           -0.01
H252       H    0.1899498466    0.3997135901    0.3613174926           -0.01
H253       H    0.1468505858    0.3443397297    0.3063800271           -0.01
H254       H    0.1493447499    0.2861738090    0.3946919345           -0.01
H255       H    0.1251802533    0.2955221316    0.3628693666           -0.01
H256       H    0.1050668607    0.3226986506    0.3414795071           -0.01
H257       H    0.0957620978    0.3587138614    0.3369295516           -0.01
H258       H    0.1005069516    0.3948720478    0.3492949734           -0.01
H259       H    0.1175983839    0.4195560767    0.3751425877           -0.01
H260       H    0.1863794893    0.2936699160    0.5025186275           -0.01
H261       H    0.1881075068    0.4479433848    0.4665914359           -0.01
H262       H    0.1143665213    0.4208717154    0.4201349785           -0.01
H263       H    0.1279052710    0.4415191770    0.4515176571           -0.01
H264       H    0.1942094345    0.4252500303    0.4341098266           -0.01
H265       H    0.1804700593    0.4049190770    0.4024398920           -0.01
H266       H    0.0871924779    0.3255563089    0.4756791704           -0.01
H267       H    0.1268835240    0.3297307248    0.4789590135           -0.01
H268       H    0.1243373524    0.3799345954    0.4326310030           -0.01
H269       H    0.0848534506    0.3756136202    0.4287039185           -0.01
C270       C    0.1682335544    0.3122424065    0.4246475601           -0.01
C271       C    0.1897986522    0.3180752042    0.4289942693           -0.01
C272       C    0.1993360381    0.3139343900    0.4500536893           -0.01
C273       C    0.1873681276    0.3041523113    0.4672589241           -0.01
C274       C    0.1655756458    0.2984992130    0.4634605406           -0.01
C275       C    0.1557334134    0.3020391769    0.4426612242           -0.01
H276       H    0.1992798198    0.3257032482    0.4160832229           -0.01
H277       H    0.2161044680    0.3185150663    0.4529483412           -0.01
H278       H    0.1561827969    0.2910936460    0.4766176830           -0.01
H279       H    0.1388757280    0.2976502356    0.4399698148           -0.01
C280       C    0.3373351978    0.1731980942    0.5939110562           -0.01
C281       C    0.3302294584    0.1909743958    0.6048324759           -0.01
C282       C    0.3080627729    0.1935694390    0.6100397154           -0.01
C283       C    0.2928937030    0.1785881081    0.6041466119           -0.01
C284       C    0.2704062188    0.1807242651    0.6085600555           -0.01
C285       C    0.2555869498    0.1655896717    0.6018733037           -0.01
C286       C    0.2630549249    0.1482488736    0.5904780449           -0.01
C287       C    0.2488532116    0.1328257156    0.5832048962           -0.01
C288       C    0.2571627851    0.1159100668    0.5716058075           -0.01
C289       C    0.2796574442    0.1147172288    0.5671418032           -0.01
C290       C    0.2854813716    0.1461761064    0.5860038003           -0.01
C291       C    0.3005120993    0.1611121862    0.5931583227           -0.01
C292       C    0.4305383428    0.1655925263    0.5850302882           -0.01
C293       C    0.2893384921    0.0974589555    0.5553266132           -0.01
C294       C    0.2949248851    0.0992651275    0.5324574352           -0.01
C295       C    0.3077853438    0.0844652695    0.5221127321           -0.01
C296       C    0.3155324462    0.0678952411    0.5346491767           -0.01
C297       C    0.3090142598    0.0656574419    0.5573292853           -0.01
C298       C    0.2959447018    0.0803714690    0.5675842303           -0.01
C299       C    0.3325900964    0.0548972331    0.5247203615           -0.01
C300       C    0.3334779985    0.1480301378    0.5252860202           -0.01
C301       C    0.3444453446    0.1441875561    0.5048389342           -0.01
C302       C    0.3571160026    0.1266026583    0.5025390303           -0.01
C303       C    0.3596680901    0.1134431217    0.5209814867           -0.01
C304       C    0.3737070559    0.0966215603    0.5201831651           -0.01
C305       C    0.3770667524    0.0847151038    0.5395558984           -0.01
C306       C    0.3662062187    0.0893204790    0.5598731481           -0.01
C307       C    0.3697873603    0.0782834243    0.5797824990           -0.01
C308       C    0.3594317611    0.0840746096    0.5999243502           -0.01
C309       C    0.3450718762    0.1007046971    0.6000119590           -0.01
C310       C    0.3516454432    0.1057641295    0.5605784267           -0.01
C311       C    0.3483676146    0.1177992433    0.5410841078           -0.01
C312       C    0.2986213752    0.2271621004    0.5452659128           -0.01
C313       C    0.3112440765    0.1382063247    0.6804523909           -0.01
Cu314     Cu    0.3236392115    0.1336629385    0.5721996379             1.0
N315       N    0.3223058747    0.1587173934    0.5887523652           -0.01
N316       N    0.2928877759    0.1298404354    0.5743879209           -0.01
N317       N    0.3350301124    0.1342678559    0.5422504393           -0.01
N318       N    0.3413520466    0.1107413220    0.5802820166           -0.01
N319       N    0.4407890632    0.1498474243    0.5928527297           -0.01
N320       N    0.3441971949    0.0430642090    0.5375475013           -0.01
N321       N    0.2778379996    0.2307288351    0.5474891979           -0.01
N322       N    0.3243470279    0.1471701069    0.6945713593           -0.01
C323       C    0.3361221808    0.1085849085    0.6213558793           -0.01
C324       C    0.3502890147    0.1134439396    0.6392255336           -0.01
C325       C    0.3422780883    0.1228530689    0.6586712746           -0.01
C326       C    0.3198964427    0.1273315342    0.6606292724           -0.01
C327       C    0.3056567485    0.1218492298    0.6430406356           -0.01
C328       C    0.3137460400    0.1125686212    0.6235209957           -0.01
C329       C    0.4064161868    0.1663192381    0.5847471192           -0.01
C330       C    0.3958887423    0.1840570588    0.5775315538           -0.01
C331       C    0.3732274830    0.1860103236    0.5795694011           -0.01
C332       C    0.3607189831    0.1702107183    0.5887938056           -0.01
C333       C    0.3710942748    0.1521490254    0.5950023967           -0.01
C334       C    0.3937519454    0.1501431666    0.5929914698           -0.01
H335       H    0.3417799327    0.2026613549    0.6095502003           -0.01
H336       H    0.3027999722    0.2072729476    0.6185214756           -0.01
H337       H    0.2642812420    0.1941131749    0.6170476112           -0.01
H338       H    0.2383393746    0.1675314154    0.6054076751           -0.01
H339       H    0.2314620795    0.1338390306    0.5864561638           -0.01
H340       H    0.2462279829    0.1039902165    0.5661099741           -0.01
H341       H    0.4395519649    0.1786950194    0.5791643684           -0.01
H342       H    0.2902279590    0.1126055717    0.5229595903           -0.01
H343       H    0.3128259749    0.0866325627    0.5047083972           -0.01
H344       H    0.3148798385    0.0531015106    0.5674368348           -0.01
H345       H    0.2919625561    0.0789682858    0.5853724203           -0.01
H346       H    0.3375865421    0.0580696009    0.5075264019           -0.01
H347       H    0.3436655496    0.1549619662    0.4910417381           -0.01
H348       H    0.3656629680    0.1238138715    0.4867985430           -0.01
H349       H    0.3824714457    0.0929813109    0.5047846890           -0.01
H350       H    0.3884009024    0.0721413327    0.5387341716           -0.01
H351       H    0.3809893074    0.0655836059    0.5799195194           -0.01
H352       H    0.3628169031    0.0758300460    0.6153692529           -0.01
H353       H    0.3103530982    0.2393861182    0.5465551790           -0.01
H354       H    0.2936942004    0.1399413334    0.6820484059           -0.01
H355       H    0.3676836956    0.1106185340    0.6377715478           -0.01
H356       H    0.3536202728    0.1268651142    0.6720060979           -0.01
H357       H    0.2883344246    0.1251075091    0.6442030562           -0.01
H358       H    0.3025586264    0.1084739417    0.6101583915           -0.01
H359       H    0.4052818828    0.1966756982    0.5710043823           -0.01
H360       H    0.3655172660    0.2000543529    0.5744682596           -0.01
H361       H    0.3618340498    0.1400630457    0.6026222468           -0.01
H362       H    0.4013798598    0.1362537362    0.5987012670           -0.01
C363       C    0.3237428021    0.1679445225    0.5296700964           -0.01
C364       C    0.3019256394    0.1701669915    0.5362640200           -0.01
C365       C    0.2936163084    0.1893968023    0.5414464498           -0.01
C366       C    0.3070670945    0.2067097979    0.5404498190           -0.01
C367       C    0.3291164361    0.2048230247    0.5343008211           -0.01
C368       C    0.3377922446    0.1860553226    0.5286629716           -0.01
H369       H    0.2913085599    0.1570766842    0.5372681519           -0.01
H370       H    0.2766288906    0.1907199686    0.5463926985           -0.01
H371       H    0.3396356974    0.2180115955    0.5336259191           -0.01
H372       H    0.3548597011    0.1847985597    0.5240054378           -0.01
C373       C    0.0942475017    0.3241089713    0.0939051313           -0.01
C374       C    0.1013530909    0.3063326064    0.1048265417           -0.01
C375       C    0.1235197448    0.3037374229    0.1100338386           -0.01
C376       C    0.1386889326    0.3187186766    0.1041408016           -0.01
C377       C    0.1611763906    0.3165823790    0.1085543041           -0.01
C378       C    0.1759957806    0.3317168989    0.1018676182           -0.01
C379       C    0.1685279541    0.3490577634    0.0904723669           -0.01
C380       C    0.1827297920    0.3644808527    0.0831992827           -0.01
C381       C    0.1744203646    0.3813965733    0.0716001984           -0.01
C382       C    0.1519257254    0.3825895520    0.0671361336           -0.01
C383       C    0.1461015334    0.3511306709    0.0859980634           -0.01
C384       C    0.1310706847    0.3361946651    0.0931525197           -0.01
C385       C    0.0010444321    0.3317151032    0.0850241169           -0.01
C386       C    0.1422448266    0.3998479056    0.0553209448           -0.01
C387       C    0.1366584817    0.3980418118    0.0324517484           -0.01
C388       C    0.1237981514    0.4128417658    0.0221070337           -0.01
C389       C    0.1160511291    0.4294118146    0.0346434837           -0.01
C390       C    0.1225692708    0.4316495305    0.0573236141           -0.01
C391       C    0.1356387013    0.4169354063    0.0675785714           -0.01
C392       C    0.0989935939    0.4424099423    0.0247146423           -0.01
C393       C    0.0981050542    0.3492770417    0.0252801470           -0.01
C394       C    0.0871377882    0.3531197284    0.0048330368           -0.01
C395       C    0.0744672565    0.3707047050    0.0025331263           -0.01
C396       C    0.0719152101    0.3838642199    0.0209755970           -0.01
C397       C    0.0578763613    0.4006858652    0.0201772639           -0.01
C398       C    0.0545166950    0.4125923028    0.0395500072           -0.01
C399       C    0.0653771437    0.4079868235    0.0598672795           -0.01
C400       C    0.0617960249    0.4190238595    0.0797766385           -0.01
C401       C    0.0721515313    0.4132325735    0.0999185090           -0.01
C402       C    0.0865113023    0.3966024017    0.1000061306           -0.01
C403       C    0.0799378049    0.3915430862    0.0605725718           -0.01
C404       C    0.0832156028    0.3795079921    0.0410782424           -0.01
C405       C    0.1329610841    0.2701448351    0.0452600074           -0.01
C406       C    0.1203386335    0.3591004157    0.1804465954           -0.01
Cu407     Cu    0.1079438154    0.3636440900    0.0721938154             1.0
N408       N    0.1092769374    0.3385895944    0.0887465056           -0.01
N409       N    0.1386952713    0.3674664085    0.0743821900           -0.01
N410       N    0.0965529894    0.3630392989    0.0422445841           -0.01
N411       N    0.0902311155    0.3865657942    0.0802761821           -0.01
N412       N    0.9907937986    0.3474602497    0.0928465555           -0.01
N413       N    0.0873865423    0.4542430089    0.0375417691           -0.01
N414       N    0.1537444295    0.2665779742    0.0474833445           -0.01
N415       N    0.1072355836    0.3501366822    0.1945655128           -0.01
C416       C    0.0954608876    0.3887220954    0.1213500629           -0.01
C417       C    0.0812939733    0.3838631117    0.1392196699           -0.01
C418       C    0.0893047840    0.3744538967    0.1586654179           -0.01
C419       C    0.1116863939    0.3699752963    0.1606234705           -0.01
C420       C    0.1259261720    0.3754575523    0.1430348822           -0.01
C421       C    0.1178369955    0.3847382471    0.1235152350           -0.01
C422       C    0.0251665838    0.3309882505    0.0847410136           -0.01
C423       C    0.0356939263    0.3132503825    0.0775254485           -0.01
C424       C    0.0583551669    0.3112969808    0.0795633557           -0.01
C425       C    0.0708637503    0.3270964945    0.0887878206           -0.01
C426       C    0.0604885656    0.3451582358    0.0949964123           -0.01
C427       C    0.0378309140    0.3471642314    0.0929854257           -0.01
H428       H    0.0898025242    0.2946457056    0.1095442150           -0.01
H429       H    0.1287824295    0.2900338666    0.1185155911           -0.01
H430       H    0.1673012536    0.3031934165    0.1170418550           -0.01
H431       H    0.1932433332    0.3297750471    0.1054020343           -0.01
H432       H    0.2001209086    0.3634674293    0.0864505969           -0.01
H433       H    0.1853552627    0.3933163704    0.0661044148           -0.01
H434       H    0.9920307359    0.3186126746    0.0791581507           -0.01
H435       H    0.1413553417    0.3847013590    0.0229538948           -0.01
H436       H    0.1187575515    0.4106745367    0.0047026812           -0.01
H437       H    0.1167037512    0.4442054760    0.0674311677           -0.01
H438       H    0.1396208096    0.4183385309    0.0853667747           -0.01
H439       H    0.0939971719    0.4392376380    0.0075206637           -0.01
H440       H    0.0879175461    0.3423453412    0.9910358252           -0.01
H441       H    0.0659203517    0.3734935733    0.9867926198           -0.01
H442       H    0.0491120371    0.4043261965    0.0047787693           -0.01
H443       H    0.0431826331    0.4251661420    0.0387282694           -0.01
H444       H    0.0505941641    0.4317237434    0.0799136484           -0.01
H445       H    0.0687664048    0.4214771261    0.1153634157           -0.01
H446       H    0.1212292743    0.2579208834    0.0465492212           -0.01
H447       H    0.1378884935    0.3573653009    0.1820426563           -0.01
H448       H    0.0638993155    0.3866886222    0.1377656405           -0.01
H449       H    0.0779625370    0.3704418914    0.1720002031           -0.01
H450       H    0.1432484706    0.3721991692    0.1441973456           -0.01
H451       H    0.1290244723    0.3888328877    0.1101526685           -0.01
H452       H    0.0263007168    0.3006318112    0.0709982304           -0.01
H453       H    0.0660653014    0.2972529166    0.0744622127           -0.01
H454       H    0.0697488530    0.3572441461    0.1026163078           -0.01
H455       H    0.0302030794    0.3610536951    0.0986952244           -0.01
C456       C    0.1078401030    0.3293625913    0.0296642178           -0.01
C457       C    0.1296572330    0.3271399813    0.0362581983           -0.01
C458       C    0.1379664190    0.3079101115    0.0414406198           -0.01
C459       C    0.1245155172    0.2905971967    0.0404439235           -0.01
C460       C    0.1024662048    0.2924841113    0.0342948675           -0.01
C461       C    0.0937905393    0.3112518755    0.0286570245           -0.01
H462       H    0.1402743993    0.3402302244    0.0372623810           -0.01
H463       H    0.1549538147    0.3065868357    0.0463869136           -0.01
H464       H    0.0919468552    0.2792956035    0.0336199148           -0.01
H465       H    0.0767231038    0.3125087476    0.0239994453           -0.01
C466       C    0.2797746110    0.1376970586    0.9602868546           -0.01
C467       C    0.2718464263    0.1367189345    0.9826301378           -0.01
C468       C    0.2498326346    0.1321278987    0.9866857323           -0.01
C469       C    0.2356142655    0.1287405462    0.9685078028           -0.01
C470       C    0.2132766889    0.1245416813    0.9717273871           -0.01
C471       C    0.1993780778    0.1217377639    0.9530435882           -0.01
C472       C    0.2076080373    0.1233187346    0.9309253641           -0.01
C473       C    0.1943172364    0.1208920967    0.9117096556           -0.01
C474       C    0.2033410495    0.1228936514    0.8899519584           -0.01
C475       C    0.2256081920    0.1275679481    0.8876410935           -0.01
C476       C    0.2298766659    0.1275903222    0.9277375644           -0.01
C477       C    0.2440256764    0.1299486373    0.9464516824           -0.01
C478       C    0.3727408180    0.1482310343    0.9525531507           -0.01
C479       C    0.2360139422    0.1296857123    0.8655019400           -0.01
C480       C    0.2402586066    0.1490280699    0.8568840353           -0.01
C481       C    0.2537107745    0.1513554372    0.8379909666           -0.01
C482       C    0.2633871132    0.1343831845    0.8277767848           -0.01
C483       C    0.2582390998    0.1149212437    0.8358412374           -0.01
C484       C    0.2445809071    0.1126095631    0.8545989903           -0.01
C485       C    0.2808972738    0.1375282416    0.8110333593           -0.01
C486       C    0.2744077425    0.1800847813    0.9033426399           -0.01
C487       C    0.2845845773    0.1953121046    0.8904964646           -0.01
C488       C    0.2984824646    0.1899778921    0.8725857164           -0.01
C489       C    0.3030176339    0.1695153698    0.8682698374           -0.01
C490       C    0.3182946545    0.1634483508    0.8518690247           -0.01
C491       C    0.3235822920    0.1428884957    0.8492576693           -0.01
C492       C    0.3134445249    0.1281235823    0.8628015258           -0.01
C493       C    0.3189111593    0.1075567617    0.8613079572           -0.01
C494       C    0.3091729716    0.0935152892    0.8759629194           -0.01
C495       C    0.2935550596    0.1000320379    0.8918305445           -0.01
C496       C    0.2976731092    0.1340506891    0.8787638192           -0.01
C497       C    0.2924505273    0.1547721940    0.8814491636           -0.01
C498       C    0.2344318419    0.1981394604    0.9893499288           -0.01
C499       C    0.2610194047    0.0511480074    0.9648738523           -0.01
Cu500     Cu    0.2681621560    0.1356125509    0.9105559860             1.0
N501       N    0.2656933536    0.1339701231    0.9429509589           -0.01
N502       N    0.2379540789    0.1298045599    0.9065071410           -0.01
N503       N    0.2779190356    0.1604382054    0.8977018838           -0.01
N504       N    0.2880390496    0.1199852809    0.8924133826           -0.01
N505       N    0.3846026405    0.1355562558    0.9410664585           -0.01
N506       N    0.2940560649    0.1228005181    0.8057961756           -0.01
N507       N    0.2135650838    0.1964607912    0.9930356632           -0.01
N508       N    0.2740811744    0.0450990351    0.9808460939           -0.01
C509       C    0.2851126813    0.0861086827    0.9091674040           -0.01
C510       C    0.2997529300    0.0752806467    0.9228735505           -0.01
C511       C    0.2920263792    0.0636342638    0.9408774037           -0.01
C512       C    0.2694818544    0.0624654591    0.9452734178           -0.01
C513       C    0.2548330279    0.0727783822    0.9310791668           -0.01
C514       C    0.2626236070    0.0845483689    0.9131712002           -0.01
C515       C    0.3486460334    0.1469742658    0.9521272732           -0.01
C516       C    0.3363814185    0.1600668896    0.9658532881           -0.01
C517       C    0.3137632583    0.1576496824    0.9677799839           -0.01
C518       C    0.3030362820    0.1421276539    0.9559365838           -0.01
C519       C    0.3151233754    0.1296707619    0.9414158679           -0.01
C520       C    0.3377435255    0.1320421579    0.9394495834           -0.01
H521       H    0.2826626187    0.1392447973    0.9968549451           -0.01
H522       H    0.2439381498    0.1313405490    0.0039479920           -0.01
H523       H    0.2065488951    0.1235398077    0.9886453650           -0.01
H524       H    0.1822290405    0.1185390325    0.9558820960           -0.01
H525       H    0.1770844866    0.1174784554    0.9134932419           -0.01
H526       H    0.1931165155    0.1209222344    0.8751609970           -0.01
H527       H    0.3803743113    0.1595900294    0.9631474141           -0.01
H528       H    0.2340326793    0.1623375039    0.8654488695           -0.01
H529       H    0.2576640254    0.1665006000    0.8322486764           -0.01
H530       H    0.2655978201    0.1015791980    0.8283840617           -0.01
H531       H    0.2416407542    0.0975927326    0.8613191153           -0.01
H532       H    0.2847374416    0.1529670452    0.8063800075           -0.01
H533       H    0.2822426476    0.2111340947    0.8946909183           -0.01
H534       H    0.3064069951    0.2017860118    0.8628681480           -0.01
H535       H    0.3265209642    0.1746097615    0.8414784651           -0.01
H536       H    0.3358268289    0.1385947476    0.8369290083           -0.01
H537       H    0.3310833216    0.1024365972    0.8492951456           -0.01
H538       H    0.3139930558    0.0777524440    0.8751434596           -0.01
H539       H    0.2452096820    0.2036384213    0.0025183096           -0.01
H540       H    0.2434861508    0.0493644172    0.9665938883           -0.01
H541       H    0.3172255999    0.0764375054    0.9201358245           -0.01
H542       H    0.3036879644    0.0557900934    0.9515190769           -0.01
H543       H    0.2373830269    0.0720571615    0.9341119685           -0.01
H544       H    0.2511212940    0.0923880669    0.9024414627           -0.01
H545       H    0.3443973449    0.1717544205    0.9756779065           -0.01
H546       H    0.3047064806    0.1675789462    0.9789584293           -0.01
H547       H    0.3072536204    0.1173745178    0.9326312730           -0.01
H548       H    0.3467373265    0.1216965370    0.9287035093           -0.01
C549       C    0.2633551127    0.1850653787    0.9246472957           -0.01
C550       C    0.2417902655    0.1792320408    0.9289944377           -0.01
C551       C    0.2322530446    0.1833728756    0.9500539295           -0.01
C552       C    0.2442208825    0.1931555202    0.9672588078           -0.01
C553       C    0.2660131273    0.1988091725    0.9634599912           -0.01
C554       C    0.2758551791    0.1952692000    0.9426605876           -0.01
H555       H    0.2323091617    0.1716035581    0.9160836716           -0.01
H556       H    0.2154848041    0.1787917726    0.9529489187           -0.01
H557       H    0.2754059232    0.2062151790    0.9766168586           -0.01
H558       H    0.2927126841    0.1996585732    0.9399688430           -0.01
C559       C    0.2797770987    0.8596109550    0.0593317941           -0.01
C560       C    0.2718486961    0.8605893255    0.0369886083           -0.01
C561       C    0.2498348414    0.8651802765    0.0329333154           -0.01
C562       C    0.2356166275    0.8685672984    0.0511114467           -0.01
C563       C    0.2132789978    0.8727660654    0.0478921608           -0.01
C564       C    0.1993805498    0.8755696475    0.0665761486           -0.01
C565       C    0.2076107284    0.8739884353    0.0886942621           -0.01
C566       C    0.1943200975    0.8764147347    0.1079101470           -0.01
C567       C    0.2033441285    0.8744129482    0.1296677186           -0.01
C568       C    0.2256113179    0.8697387609    0.1319782780           -0.01
C569       C    0.2298794100    0.8697169456    0.0918817629           -0.01
C570       C    0.2440282548    0.8673589677    0.0731674609           -0.01
C571       C    0.3727434353    0.8490774618    0.0670643708           -0.01
C572       C    0.2360172901    0.8676207687    0.1541172897           -0.01
C573       C    0.2402621391    0.8482783234    0.1627348308           -0.01
C574       C    0.2537144994    0.8459507902    0.1816277231           -0.01
C575       C    0.2633908452    0.8629229684    0.1918420866           -0.01
C576       C    0.2582426518    0.8823849838    0.1837780089           -0.01
C577       C    0.2445842682    0.8846968272    0.1650204343           -0.01
C578       C    0.2809011820    0.8597777995    0.2085852807           -0.01
C579       C    0.2744109975    0.8172224432    0.1162753621           -0.01
C580       C    0.2845880354    0.8019950136    0.1291211811           -0.01
C581       C    0.2984860649    0.8073290760    0.1470318751           -0.01
C582       C    0.3030211668    0.8277915696    0.1513480464           -0.01
C583       C    0.3182983113    0.8338584672    0.1677488029           -0.01
C584       C    0.3235858647    0.8544183210    0.1703604445           -0.01
C585       C    0.3134478902    0.8691833502    0.1568169362           -0.01
C586       C    0.3189144297    0.8897501854    0.1583107893           -0.01
C587       C    0.3091760279    0.9037917909    0.1436561593           -0.01
C588       C    0.2935579994    0.8972751545    0.1277885864           -0.01
C589       C    0.2976763540    0.8632563558    0.1408547064           -0.01
C590       C    0.2924538564    0.8425348537    0.1381690725           -0.01
C591       C    0.2344343736    0.7991686532    0.0302681841           -0.01
C592       C    0.2610213895    0.9461599489    0.0547464212           -0.01
Cu593     Cu    0.2681651063    0.8616947300    0.1090628162             1.0
N594       N    0.2656959867    0.8633375719    0.0766678958           -0.01
N595       N    0.2379570369    0.8675024771    0.1131120669           -0.01
N596       N    0.2779222400    0.8368689664    0.1219164074           -0.01
N597       N    0.2880420898    0.8773218845    0.1272054745           -0.01
N598       N    0.3846052999    0.8617521626    0.0785511513           -0.01
N599       N    0.2940599449    0.8745055363    0.2138225732           -0.01
N600       N    0.2135675715    0.8008472399    0.0265826913           -0.01
N601       N    0.2740829751    0.9522092152    0.0387741459           -0.01
C602       C    0.2851153821    0.9111986864    0.1104520439           -0.01
C603       C    0.2997554428    0.9220269963    0.0967459266           -0.01
C604       C    0.2920286588    0.9336735694    0.0787423453           -0.01
C605       C    0.2694840859    0.9348422905    0.0743465817           -0.01
C606       C    0.2548354493    0.9245290869    0.0885408121           -0.01
C607       C    0.2626262615    0.9127589118    0.1064485040           -0.01
C608       C    0.3486486480    0.8503340730    0.0674905161           -0.01
C609       C    0.3363839719    0.8372415541    0.0537644101           -0.01
C610       C    0.3137657805    0.8396586445    0.0518379862           -0.01
C611       C    0.3030388347    0.8551804484    0.0636817532           -0.01
C612       C    0.3151260002    0.8676372238    0.0782025513           -0.01
C613       C    0.3377461817    0.8652659441    0.0801685648           -0.01
H614       H    0.2826647664    0.8580637194    0.0227636483           -0.01
H615       H    0.2439401881    0.8659678181    0.0156711292           -0.01
H616       H    0.2065510377    0.8737681211    0.0309742684           -0.01
H617       H    0.1822314685    0.8787683087    0.0637378694           -0.01
H618       H    0.1770873127    0.8798282911    0.1061267939           -0.01
H619       H    0.1931197249    0.8763841046    0.1444588174           -0.01
H620       H    0.3803768880    0.8377186553    0.0564698412           -0.01
H621       H    0.2340362009    0.8349689639    0.1541698400           -0.01
H622       H    0.2576678853    0.8308055762    0.1873697221           -0.01
H623       H    0.2656013723    0.8957269769    0.1912353301           -0.01
H624       H    0.2416439716    0.8997137283    0.1583005880           -0.01
H625       H    0.2847414761    0.8443389583    0.2132383375           -0.01
H626       H    0.2822461497    0.7861730644    0.1249264894           -0.01
H627       H    0.3064107507    0.7955208773    0.1567491668           -0.01
H628       H    0.3265247792    0.8226969705    0.1781390935           -0.01
H629       H    0.3358304961    0.8587119826    0.1826890511           -0.01
H630       H    0.3310866793    0.8948702672    0.1703235609           -0.01
H631       H    0.3139960363    0.9195546556    0.1444758306           -0.01
H632       H    0.2452121175    0.7936699348    0.0170996018           -0.01
H633       H    0.2434881097    0.9479434516    0.0530265944           -0.01
H634       H    0.3172281449    0.9208702113    0.0994834544           -0.01
H635       H    0.3036901010    0.9415179543    0.0681006825           -0.01
H636       H    0.2373854156    0.9252502381    0.0855082011           -0.01
H637       H    0.2511240922    0.9049189990    0.1171782296           -0.01
H638       H    0.3443998668    0.8255542039    0.0439395161           -0.01
H639       H    0.3047089491    0.8297294719    0.0406594692           -0.01
H640       H    0.3072562637    0.8799333019    0.0869874305           -0.01
H641       H    0.3467400301    0.8756114792    0.0909147180           -0.01
C642       C    0.2633581912    0.8122420588    0.0949707371           -0.01
C643       C    0.2417932716    0.8180753187    0.0906239127           -0.01
C644       C    0.2322558722    0.8139347032    0.0695644501           -0.01
C645       C    0.2442235982    0.8041523620    0.0523592873           -0.01
C646       C    0.2660159091    0.7984987965    0.0561577869           -0.01
C647       C    0.2758581402    0.8020385551    0.0769571482           -0.01
H648       H    0.2323122503    0.8257035704    0.1035349023           -0.01
H649       H    0.2154875798    0.8185157390    0.0666697086           -0.01
H650       H    0.2754086190    0.7910930236    0.0430007006           -0.01
H651       H    0.2927156941    0.7976492523    0.0796486475           -0.01
C652       C    0.0942487586    0.6732000740    0.9257077699           -0.01
C653       C    0.1013546356    0.6909763875    0.9147864301           -0.01
C654       C    0.1235213673    0.6935714161    0.9095793660           -0.01
C655       C    0.1386903452    0.6785900582    0.9154725662           -0.01
C656       C    0.1611778685    0.6807261988    0.9110593000           -0.01
C657       C    0.1759970392    0.6655915773    0.9177461456           -0.01
C658       C    0.1685289246    0.6482507668    0.9291413224           -0.01
C659       C    0.1827305345    0.6328275803    0.9364145598           -0.01
C660       C    0.1744208212    0.6159119196    0.9480135605           -0.01
C661       C    0.1519261259    0.6147190980    0.9524773888           -0.01
C662       C    0.1461024387    0.6461780158    0.9336153902           -0.01
C663       C    0.1310718118    0.6611141247    0.9264607721           -0.01
C664       C    0.0010455243    0.6655945909    0.9345878047           -0.01
C665       C    0.1422449357    0.5974608138    0.9642924797           -0.01
C666       C    0.1366583831    0.5992669508    0.9871616169           -0.01
C667       C    0.1237978007    0.5844670880    0.9975061997           -0.01
C668       C    0.1160507346    0.5678970906    0.9849696720           -0.01
C669       C    0.1225690778    0.5656593251    0.9622896108           -0.01
C670       C    0.1356387586    0.5803733566    0.9520347876           -0.01
C671       C    0.0989929698    0.5548990832    0.9948983369           -0.01
C672       C    0.0981053783    0.6480319899    0.9943328008           -0.01
C673       C    0.0871378714    0.6441893832    0.0147797964           -0.01
C674       C    0.0744671390    0.6266044950    0.0170795776           -0.01
C675       C    0.0719151416    0.6134449943    0.9986370832           -0.01
C676       C    0.0578761147    0.5966234466    0.9994352725           -0.01
C677       C    0.0545165192    0.5847170286    0.9800624966           -0.01
C678       C    0.0653772153    0.5893224287    0.9597453375           -0.01
C679       C    0.0617961815    0.5782854138    0.9398359435           -0.01
C680       C    0.0721519456    0.5840766241    0.9196941806           -0.01
C681       C    0.0865118858    0.6007066962    0.9196067063           -0.01
C682       C    0.0799380499    0.6057660647    0.9590401947           -0.01
C683       C    0.0832157771    0.6178011399    0.9785345557           -0.01
C684       C    0.1329624066    0.7271639506    0.9743532886           -0.01
C685       C    0.1203403913    0.6382084320    0.8391665888           -0.01
Cu686     Cu    0.1079444576    0.6336648643    0.9474192394             1.0
N687       N    0.1092779967    0.6587193476    0.9308665573           -0.01
N688       N    0.1386958965    0.6298423319    0.9452311895           -0.01
N689       N    0.0965533419    0.6342697402    0.9773683506           -0.01
N690       N    0.0902316056    0.6107432816    0.9393366916           -0.01
N691       N    0.9907948087    0.6498495141    0.9267652619           -0.01
N692       N    0.0873859251    0.5430660947    0.9820710907           -0.01
N693       N    0.1537458101    0.7307306669    0.9721301695           -0.01
N694       N    0.1072375717    0.6471722538    0.8250475313           -0.01
C695       C    0.0954617617    0.6085869363    0.8982628663           -0.01
C696       C    0.0812950731    0.6134460149    0.8803931090           -0.01
C697       C    0.0893061713    0.6228551706    0.8609474432           -0.01
C698       C    0.1116878459    0.6273336152    0.8589896251           -0.01
C699       C    0.1259273946    0.6218512637    0.8765783647           -0.01
C700       C    0.1178379313    0.6125706287    0.8960979290           -0.01
C701       C    0.0251676806    0.6663212761    0.9348711618           -0.01
C702       C    0.0356951312    0.6840590724    0.9420868335           -0.01
C703       C    0.0583564118    0.6860123164    0.9400491645           -0.01
C704       C    0.0708649264    0.6702127141    0.9308248351           -0.01
C705       C    0.0604896203    0.6521510436    0.9246161384           -0.01
C706       C    0.0378319285    0.6501452058    0.9266268869           -0.01
H707       H    0.0898042339    0.7026633676    0.9100686323           -0.01
H708       H    0.1287842745    0.7072749342    0.9010976657           -0.01
H709       H    0.1673029508    0.6941151172    0.9025718104           -0.01
H710       H    0.1932446464    0.6675333087    0.9142119107           -0.01
H711       H    0.2001216935    0.6338408823    0.9331634285           -0.01
H712       H    0.1853555445    0.6039920476    0.9535094621           -0.01
H713       H    0.9920319028    0.6786970832    0.9404536729           -0.01
H714       H    0.1413552843    0.6126073727    0.9966595168           -0.01
H715       H    0.1187570508    0.5866343554    0.0149104986           -0.01
H716       H    0.1167035310    0.5531034184    0.9521819984           -0.01
H717       H    0.1396210283    0.5789702010    0.9342466266           -0.01
H718       H    0.0939964099    0.5580714254    0.0120922622           -0.01
H719       H    0.0879176020    0.6549637676    0.0285770136           -0.01
H720       H    0.0659200504    0.6238156890    0.0328199948           -0.01
H721       H    0.0491116014    0.5929831791    0.0148336756           -0.01
H722       H    0.0431823219    0.5721432683    0.9808841181           -0.01
H723       H    0.0505941935    0.5655856077    0.9396988186           -0.01
H724       H    0.0687668882    0.5758320920    0.9042492403           -0.01
H725       H    0.1212307332    0.7393879835    0.9730639484           -0.01
H726       H    0.1378902847    0.6399434246    0.8375707123           -0.01
H727       H    0.0639003724    0.6106206255    0.8818469560           -0.01
H728       H    0.0779640966    0.6268672521    0.8476125376           -0.01
H729       H    0.1432497377    0.6251095263    0.8754160829           -0.01
H730       H    0.1290252346    0.6084759131    0.9094606142           -0.01
H731       H    0.0263019850    0.6966777102    0.9486139497           -0.01
H732       H    0.0660666380    0.7000563281    0.9451503853           -0.01
H733       H    0.0697498606    0.6400650677    0.9169963433           -0.01
H734       H    0.0302040097    0.6362557939    0.9209170112           -0.01
C735       C    0.1078406719    0.6679463719    0.9899488278           -0.01
C736       C    0.1296578896    0.6701688291    0.9833550765           -0.01
C737       C    0.1379673215    0.6893986402    0.9781727378           -0.01
C738       C    0.1245165851    0.7067116486    0.9791692884           -0.01
C739       C    0.1024671928    0.7048248882    0.9853181127           -0.01
C740       C    0.0937912817    0.6860571854    0.9909558688           -0.01
H741       H    0.1402749333    0.6570785121    0.9823510086           -0.01
H742       H    0.1549547795    0.6907217972    0.9732266227           -0.01
H743       H    0.0919479700    0.7180134692    0.9859929515           -0.01
H744       H    0.0767237874    0.6848004326    0.9956132686           -0.01
C745       C    0.6518139795    0.8596113747    0.4602759899           -0.01
C746       C    0.6597420598    0.8605895469    0.4826193089           -0.01
C747       C    0.6817558036    0.8651807072    0.4866750009           -0.01
C748       C    0.6959742301    0.8685681370    0.4684971338           -0.01
C749       C    0.7183117651    0.8727671282    0.4717168175           -0.01
C750       C    0.7322104397    0.8755711210    0.4530330802           -0.01
C751       C    0.7239805875    0.8739901006    0.4309148195           -0.01
C752       C    0.7372714568    0.8764168105    0.4116991702           -0.01
C753       C    0.7282477522    0.8744152016    0.3899414332           -0.01
C754       C    0.7059806505    0.8697407792    0.3876304697           -0.01
C755       C    0.7017120009    0.8697183872    0.4277269209           -0.01
C756       C    0.6875629239    0.8673599952    0.4464409756           -0.01
C757       C    0.5588478755    0.8490768743    0.4525418653           -0.01
C758       C    0.6955750113    0.8676229531    0.3654912702           -0.01
C759       C    0.6913305117    0.8482805702    0.3568733660           -0.01
C760       C    0.6778784418    0.8459531243    0.3379802372           -0.01
C761       C    0.6682020365    0.8629253210    0.3277659928           -0.01
C762       C    0.6733498868    0.8823872920    0.3358304489           -0.01
C763       C    0.6870079822    0.8846990524    0.3545882628           -0.01
C764       C    0.6506919699    0.8597801628    0.3110224892           -0.01
C765       C    0.6571813758    0.8172236736    0.4033318445           -0.01
C766       C    0.6470046973    0.8019962911    0.3904856378           -0.01
C767       C    0.6331068536    0.8073304226    0.3725748195           -0.01
C768       C    0.6285715689    0.8277929187    0.3682588980           -0.01
C769       C    0.6132945804    0.8338598492    0.3518580081           -0.01
C770       C    0.6080068193    0.8544196741    0.3492466066           -0.01
C771       C    0.6181444302    0.8691846466    0.3627904948           -0.01
C772       C    0.6126776673    0.8897514362    0.3612968793           -0.01
C773       C    0.6224156987    0.9037929657    0.3759518720           -0.01
C774       C    0.6380335838    0.8972763075    0.3918195764           -0.01
C775       C    0.6339158147    0.8632576310    0.3787528676           -0.01
C776       C    0.6391385209    0.8425361560    0.3814382579           -0.01
C777       C    0.6971570178    0.7991692326    0.4893393378           -0.01
C778       C    0.6705685977    0.9461605322    0.4648629843           -0.01
Cu779     Cu    0.6634266389    0.8616959403    0.4105451731             1.0
N780       N    0.6658952884    0.8633383869    0.4429401557           -0.01
N781       N    0.6936346956    0.8675041007    0.4064964622           -0.01
N782       N    0.6536699785    0.8368702289    0.3976910515           -0.01
N783       N    0.6435497222    0.8773230956    0.3924024610           -0.01
N784       N    0.5469860203    0.8617515843    0.4410551048           -0.01
N785       N    0.6375331051    0.8745078114    0.3057852291           -0.01
N786       N    0.7180237488    0.8008480198    0.4930251674           -0.01
N787       N    0.6575067182    0.9522094333    0.4808351589           -0.01
C788       C    0.6464757948    0.9111997128    0.4091564606           -0.01
C789       C    0.6318354149    0.9220276684    0.4228625278           -0.01
C790       C    0.6395618103    0.9336740975    0.4408664047           -0.01
C791       C    0.6621063082    0.9348430299    0.4452625223           -0.01
C792       C    0.6767552646    0.9245301871    0.4310683501           -0.01
C793       C    0.6689648412    0.9127601539    0.4131603597           -0.01
C794       C    0.5829426538    0.8503337785    0.4521160984           -0.01
C795       C    0.5952072944    0.8372412258    0.4658421840           -0.01
C796       C    0.6178254303    0.8396585607    0.4677689822           -0.01
C797       C    0.6285523567    0.8551806478    0.4559256157           -0.01
C798       C    0.6164652452    0.8676374695    0.4414048307           -0.01
C799       C    0.5938451193    0.8652659458    0.4394384436           -0.01
H800       H    0.6489258216    0.8580636253    0.4968440686           -0.01
H801       H    0.6876502075    0.8659680927    0.5039372871           -0.01
H802       H    0.7250394781    0.8737690422    0.4886348256           -0.01
H803       H    0.7493594436    0.8787699494    0.4558716643           -0.01
H804       H    0.7545041764    0.8798305490    0.4134828330           -0.01
H805       H    0.7384723381    0.8763866739    0.3751505172           -0.01
H806       H    0.5512144103    0.8377178379    0.4631361051           -0.01
H807       H    0.6975564887    0.8349711726    0.3654382430           -0.01
H808       H    0.6739253155    0.8308079384    0.3322379445           -0.01
H809       H    0.6659911117    0.8957292952    0.3283732251           -0.01
H810       H    0.6899480070    0.8997159004    0.3613083858           -0.01
H811       H    0.6468519239    0.8443413368    0.3063691357           -0.01
H812       H    0.6493467124    0.7861743148    0.3946801190           -0.01
H813       H    0.6251824431    0.7955222568    0.3628572267           -0.01
H814       H    0.6050683894    0.8226983906    0.3414674219           -0.01
H815       H    0.5957623084    0.8587133513    0.3369178842           -0.01
H816       H    0.6005055241    0.8948715304    0.3492840058           -0.01
H817       H    0.6175955146    0.9195557837    0.3751323734           -0.01
H818       H    0.6863791561    0.7936702130    0.5025076744           -0.01
H819       H    0.6881018324    0.9479442214    0.4665830998           -0.01
H820       H    0.6143627646    0.9208707109    0.4201247219           -0.01
H821       H    0.6279001270    0.9415182039    0.4515080155           -0.01
H822       H    0.6942052476    0.9252515066    0.4341012321           -0.01
H823       H    0.6804672528    0.9049205190    0.4024306838           -0.01
H824       H    0.5871914016    0.8255536512    0.4756667773           -0.01
H825       H    0.6268822241    0.8297293496    0.4789474801           -0.01
H826       H    0.6243349580    0.8799337565    0.4326202594           -0.01
H827       H    0.5848512975    0.8756115145    0.4286923169           -0.01
C828       C    0.6682339449    0.8122431417    0.4246365568           -0.01
C829       C    0.6897987348    0.8180766017    0.4289837928           -0.01
C830       C    0.6993358905    0.8139358238    0.4500433333           -0.01
C831       C    0.6873680414    0.8041531143    0.4672481661           -0.01
C832       C    0.6655758504    0.7984993387    0.4634492543           -0.01
C833       C    0.6557338665    0.8020392527    0.4426498013           -0.01
H834       H    0.6992798452    0.8257051358    0.4160730627           -0.01
H835       H    0.7161040882    0.8185170217    0.4529383955           -0.01
H836       H    0.6561830454    0.7910932814    0.4766060859           -0.01
H837       H    0.6388764021    0.7976497841    0.4399579830           -0.01
C838       C    0.8373417060    0.6732009128    0.5939068476           -0.01
C839       C    0.8302361209    0.6909773760    0.6048280465           -0.01
C840       C    0.8080694491    0.6935726605    0.6100351982           -0.01
C841       C    0.7929002410    0.6785914086    0.6041422250           -0.01
C842       C    0.7704127676    0.6807278025    0.6085555851           -0.01
C843       C    0.7555933608    0.6655932778    0.6018689663           -0.01
C844       C    0.7630611872    0.6482523106    0.5904739243           -0.01
C845       C    0.7488593345    0.6328292105    0.5832009135           -0.01
C846       C    0.7571687642    0.6159133834    0.5716020390           -0.01
C847       C    0.7796634221    0.6147203081    0.5671381074           -0.01
C848       C    0.7854876237    0.6461793065    0.5859997623           -0.01
C849       C    0.8005184862    0.6611153200    0.5931541545           -0.01
C850       C    0.9305447953    0.6655944489    0.5850264115           -0.01
C851       C    0.7893443232    0.5974618425    0.5553231391           -0.01
C852       C    0.7949307908    0.5992677574    0.5324539553           -0.01
C853       C    0.8077911241    0.5844676926    0.5221094543           -0.01
C854       C    0.8155380267    0.5678977107    0.5346461076           -0.01
C855       C    0.8090197618    0.5656601750    0.5573262245           -0.01
C856       C    0.7959503285    0.5803744099    0.5675809678           -0.01
C857       C    0.8325955688    0.5548994631    0.5247174851           -0.01
C858       C    0.8334844188    0.6480323652    0.5252820875           -0.01
C859       C    0.8444517761    0.6441895013    0.5048350741           -0.01
C860       C    0.8571222605    0.6266044718    0.5025354034           -0.01
C861       C    0.8596741685    0.6134450808    0.5209780161           -0.01
C862       C    0.8737129649    0.5966233893    0.5201799227           -0.01
C863       C    0.8770724923    0.5847170799    0.5395528002           -0.01
C864       C    0.8662119556    0.5893227351    0.5598699689           -0.01
C865       C    0.8697929357    0.5782858305    0.5797794547           -0.01
C866       C    0.8594373460    0.5840772897    0.5999212128           -0.01
C867       C    0.8450776305    0.6007075036    0.6000085948           -0.01
C868       C    0.8516513460    0.6057665194    0.5605750223           -0.01
C869       C    0.8483736879    0.6178014843    0.5410805579           -0.01
C870       C    0.7986285531    0.7271648145    0.5452609888           -0.01
C871       C    0.8112500152    0.6382101597    0.6804485114           -0.01
Cu872     Cu    0.8236453700    0.6336656792    0.5721958426             1.0
N873       N    0.8223122479    0.6587202964    0.5887482816           -0.01
N874       N    0.7928938901    0.6298434649    0.5743840881           -0.01
N875       N    0.8350363508    0.6342702242    0.5422466671           -0.01
N876       N    0.8413579516    0.6107439814    0.5802785284           -0.01
N877       N    0.9407953360    0.6498493285    0.5928490589           -0.01
N878       N    0.8442025152    0.5430664543    0.5375447899           -0.01
N879       N    0.7778452083    0.7307317513    0.5474841787           -0.01
N880       N    0.8243530232    0.6471739559    0.6945674123           -0.01
C881       C    0.8361279629    0.6085879876    0.6213524020           -0.01
C882       C    0.8502948024    0.6134470576    0.6392220383           -0.01
C883       C    0.8422839241    0.6228564341    0.6586676512           -0.01
C884       C    0.8199023192    0.6273351130    0.6606255392           -0.01
C885       C    0.8056626125    0.6218527729    0.6430369272           -0.01
C886       C    0.8137518573    0.6125719158    0.6235174141           -0.01
C887       C    0.9064226474    0.6663213691    0.5847431707           -0.01
C888       C    0.8958954014    0.6840592162    0.5775273759           -0.01
C889       C    0.8732341570    0.6860126977    0.5795651414           -0.01
C890       C    0.8607254734    0.6702132858    0.5887896926           -0.01
C891       C    0.8711005657    0.6521515587    0.5949985163           -0.01
C892       C    0.8937582208    0.6501454835    0.5929876718           -0.01
H893       H    0.8417867027    0.7026642771    0.6095456685           -0.01
H894       H    0.8028067672    0.7072762924    0.6185167887           -0.01
H895       H    0.7642879064    0.6941168431    0.6170429725           -0.01
H896       H    0.7383457967    0.6675352045    0.6054032702           -0.01
H897       H    0.7314682048    0.6338427072    0.5864521237           -0.01
H898       H    0.7462338540    0.6039935787    0.5661063123           -0.01
H899       H    0.9395585654    0.6786968097    0.5791603665           -0.01
H900       H    0.7902340241    0.6126081561    0.5229559464           -0.01
H901       H    0.8128318200    0.5866347833    0.5047051080           -0.01
H902       H    0.8148851876    0.5531042845    0.5674339321           -0.01
H903       H    0.7919681248    0.5789714234    0.5853691632           -0.01
H904       H    0.8375920892    0.5580716306    0.5075235025           -0.01
H905       H    0.8436721249    0.6549637926    0.4910377534           -0.01
H906       H    0.8656692362    0.6238154668    0.4867949703           -0.01
H907       H    0.8824773554    0.5929829231    0.5047815110           -0.01
H908       H    0.8884065162    0.5721432022    0.5387312461           -0.01
H909       H    0.8809947531    0.5655859153    0.5799166490           -0.01
H910       H    0.8628223660    0.5758328372    0.6153662181           -0.01
H911       H    0.8103603974    0.7393887415    0.5465501470           -0.01
H912       H    0.7937001528    0.6399453364    0.6820444604           -0.01
H913       H    0.8676894581    0.6106214866    0.6377681305           -0.01
H914       H    0.8536261166    0.6268685016    0.6720024588           -0.01
H915       H    0.7883403189    0.6251112143    0.6441992652           -0.01
H916       H    0.8025644349    0.6084772124    0.6101548270           -0.01
H917       H    0.9052886866    0.6966777140    0.5710000858           -0.01
H918       H    0.8655240957    0.7000567479    0.5744638200           -0.01
H919       H    0.8618401988    0.6400657294    0.6026184794           -0.01
H920       H    0.9013859796    0.6362560384    0.5986976470           -0.01
C921       C    0.8237494146    0.6679468749    0.5296659117           -0.01
C922       C    0.8019322585    0.6701695948    0.5362597526           -0.01
C923       C    0.7936231107    0.6893995254    0.5414419419           -0.01
C924       C    0.8070740757    0.7067123943    0.5404451498           -0.01
C925       C    0.8291234132    0.7048253723    0.5342962314           -0.01
C926       C    0.8377990443    0.6860575429    0.5286586181           -0.01
H927       H    0.7913150431    0.6570793895    0.5372640054           -0.01
H928       H    0.7766356942    0.6907228854    0.5463881309           -0.01
H929       H    0.8396428106    0.7180138450    0.5336212072           -0.01
H930       H    0.8548664994    0.6848005884    0.5240011435           -0.01
C931       C    0.8373344322    0.3241157691    0.4257143075           -0.01
C932       C    0.8302286001    0.3063395275    0.4147928059           -0.01
C933       C    0.8080618917    0.3037445386    0.4095856141           -0.01
C934       C    0.7928928914    0.3187258630    0.4154788465           -0.01
C935       C    0.7704053880    0.3165897570    0.4110654542           -0.01
C936       C    0.7555861911    0.3317243399    0.4177523347           -0.01
C937       C    0.7630542585    0.3490650754    0.4291476720           -0.01
C938       C    0.7488526200    0.3644882193    0.4364209494           -0.01
C939       C    0.7571622848    0.3814038034    0.4480201117           -0.01
C940       C    0.7796569598    0.3825965901    0.4524840593           -0.01
C941       C    0.7854807244    0.3511377913    0.4336218651           -0.01
C942       C    0.8005113795    0.3362017240    0.4264672145           -0.01
C943       C    0.9305376278    0.3317211689    0.4345948557           -0.01
C944       C    0.7893381009    0.3998547959    0.4642993210           -0.01
C945       C    0.7949245466    0.3980485110    0.4871684728           -0.01
C946       C    0.8077850857    0.4128483039    0.4975132246           -0.01
C947       C    0.8155322156    0.4294183793    0.4849768532           -0.01
C948       C    0.8090139785    0.4316562918    0.4622967759           -0.01
C949       C    0.7959443406    0.4169423297    0.4520417834           -0.01
C950       C    0.8325899386    0.4424163184    0.4949056948           -0.01
C951       C    0.8334775019    0.3492834151    0.4943394989           -0.01
C952       C    0.8444449150    0.3531258878    0.5147865760           -0.01
C953       C    0.8571156426    0.3707107576    0.5170865450           -0.01
C954       C    0.8596677300    0.3838703756    0.4986441570           -0.01
C955       C    0.8737067588    0.4006919142    0.4994425354           -0.01
C956       C    0.8770664482    0.4125984553    0.4800698610           -0.01
C957       C    0.8662058451    0.4079931883    0.4597526156           -0.01
C958       C    0.8697869750    0.4190303297    0.4398433179           -0.01
C959       C    0.8594313027    0.4132392512    0.4197014627           -0.01
C960       C    0.8450713574    0.3966091838    0.4196137991           -0.01
C961       C    0.8516450083    0.3915495609    0.4590472837           -0.01
C962       C    0.8483671866    0.3795143620    0.4785415428           -0.01
C963       C    0.7986205403    0.2701515921    0.4743592506           -0.01
C964       C    0.8112432133    0.3591079724    0.3391732474           -0.01
Cu965     Cu    0.8236386453    0.3636508437    0.4474259915             1.0
N966       N    0.8223051749    0.3385964668    0.4308731241           -0.01
N967       N    0.7928872179    0.3674733988    0.4452378174           -0.01
N968       N    0.8350296217    0.3630457729    0.4773751545           -0.01
N969       N    0.8413515425    0.3865724731    0.4393436944           -0.01
N970       N    0.9407883849    0.3474662929    0.4267724756           -0.01
N971       N    0.8441970467    0.4542493857    0.4820785902           -0.01
N972       N    0.7778371460    0.2665848960    0.4721360037           -0.01
N973       N    0.8243460956    0.3501442373    0.3250541906           -0.01
C974       C    0.8361215781    0.3887290828    0.3982698588           -0.01
C975       C    0.8502883481    0.3838701146    0.3804001366           -0.01
C976       C    0.8422773372    0.3744610856    0.3609543642           -0.01
C977       C    0.8198956702    0.3699826599    0.3589964039           -0.01
C978       C    0.8056560416    0.3754649028    0.3765851125           -0.01
C979       C    0.8137454172    0.3847454106    0.3961047828           -0.01
C980       C    0.9064154699    0.3309944887    0.4348780887           -0.01
C981       C    0.8958879799    0.3132566492    0.4420935821           -0.01
C982       C    0.8732267082    0.3113034247    0.4400557876           -0.01
C983       C    0.8607182416    0.3271030896    0.4308315091           -0.01
C984       C    0.8710935826    0.3451647969    0.4246229924           -0.01
C985       C    0.8937512657    0.3471706154    0.4266338668           -0.01
H986       H    0.8417790199    0.2946525743    0.4100749817           -0.01
H987       H    0.8027990195    0.2900410762    0.4011037901           -0.01
H988       H    0.7642803407    0.3032008947    0.4025778390           -0.01
H989       H    0.7383385997    0.3297826361    0.4142180010           -0.01
H990       H    0.7314614757    0.3634749431    0.4331697252           -0.01
H991       H    0.7462275400    0.3933236433    0.4535160445           -0.01
H992       H    0.9395512177    0.3186186365    0.4404606748           -0.01
H993       H    0.7902275968    0.3847080296    0.4966662545           -0.01
H994       H    0.8128257540    0.4106809237    0.5149175328           -0.01
H995       H    0.8148795765    0.4442122616    0.4521892820           -0.01
H996       H    0.7919621539    0.4183456003    0.4342536127           -0.01
H997       H    0.8375864174    0.4392438647    0.5120996221           -0.01
H998       H    0.8436651168    0.3423514152    0.5285837124           -0.01
H999       H    0.8656626589    0.3734994604    0.5328270242           -0.01
H1000      H    0.8824712017    0.4043320808    0.5148410077           -0.01
H1001      H    0.8884006458    0.4251722071    0.4808916280           -0.01
H1002      H    0.8809889679    0.4317301335    0.4397063388           -0.01
H1003      H    0.8628164345    0.4214838812    0.4042565978           -0.01
H1004      H    0.8103522157    0.2579275641    0.4730698810           -0.01
H1005      H    0.7936933268    0.3573729950    0.3375772721           -0.01
H1006      H    0.8676830430    0.3866954897    0.3818540894           -0.01
H1007      H    0.8536194725    0.3704490862    0.3476194858           -0.01
H1008      H    0.7883337028    0.3722066526    0.3754227221           -0.01
H1009      H    0.8025580531    0.3888400439    0.4094674421           -0.01
H1010      H    0.9052810916    0.3006379670    0.4486206545           -0.01
H1011      H    0.8655164536    0.2972593826    0.4451568702           -0.01
H1012      H    0.8618333816    0.3572508242    0.4170032379           -0.01
H1013      H    0.9013792156    0.3610600617    0.4209241278           -0.01
C1014      C    0.8237422220    0.3293690639    0.4899553359           -0.01
C1015      C    0.8019250343    0.3271466550    0.4833614612           -0.01
C1016      C    0.7936156201    0.3079168794    0.4781789445           -0.01
C1017      C    0.8070663462    0.2906038609    0.4791754378           -0.01
C1018      C    0.8291157105    0.2924905757    0.4853243842           -0.01
C1019      C    0.8377916016    0.3112582400    0.4909623170           -0.01
H1020      H    0.7913079996    0.3402369814    0.4823574344           -0.01
H1021      H    0.7766281847    0.3065937590    0.4732327362           -0.01
H1022      H    0.8396349258    0.2793019874    0.4859991808           -0.01
H1023      H    0.8548590747    0.3125149581    0.4956198098           -0.01
C1024      C    0.6518141852    0.1376963177    0.5593296526           -0.01
C1025      C    0.6597423514    0.1367185656    0.5369863437           -0.01
C1026      C    0.6817561937    0.1321278488    0.5329306505           -0.01
C1027      C    0.6959746289    0.1287404463    0.5511085102           -0.01
C1028      C    0.7183122525    0.1245418940    0.5478888324           -0.01
C1029      C    0.7322109232    0.1217379165    0.5665725704           -0.01
C1030      C    0.7239809744    0.1233185144    0.5886908294           -0.01
C1031      C    0.7372718312    0.1208918024    0.6079064834           -0.01
C1032      C    0.7282480232    0.1228929790    0.6296642228           -0.01
C1033      C    0.7059808267    0.1275669751    0.6319751879           -0.01
C1034      C    0.7017122980    0.1275897906    0.5918787235           -0.01
C1035      C    0.6875632333    0.1299481631    0.5731646603           -0.01
C1036      C    0.5588478600    0.1482290621    0.5670636446           -0.01
C1037      C    0.6955750808    0.1296843396    0.6541143872           -0.01
C1038      C    0.6913301919    0.1490265393    0.6627325787           -0.01
C1039      C    0.6778780212    0.1513535096    0.6816257008           -0.01
C1040      C    0.6682019037    0.1343810128    0.6918396504           -0.01
C1041      C    0.6733501438    0.1149192343    0.6837749080           -0.01
C1042      C    0.6870083393    0.1126079515    0.6650171017           -0.01
C1043      C    0.6506917274    0.1375256499    0.7085831471           -0.01
C1044      C    0.6571806134    0.1800834051    0.6162744744           -0.01
C1045      C    0.6470036100    0.1953104459    0.6291208854           -0.01
C1046      C    0.6331058123    0.1899758431    0.6470315764           -0.01
C1047      C    0.6285708988    0.1695132122    0.6513471652           -0.01
C1048      C    0.6132939746    0.1634458046    0.6677479121           -0.01
C1049      C    0.6080065918    0.1428858528    0.6703589770           -0.01
C1050      C    0.6181445208    0.1281212300    0.6568148915           -0.01
C1051      C    0.6126781397    0.1075543242    0.6583081698           -0.01
C1052      C    0.6224164790    0.0935131512    0.6436529897           -0.01
C1053      C    0.6380342898    0.1000302860    0.6277854364           -0.01
C1054      C    0.6339158424    0.1340487261    0.6408526612           -0.01
C1055      C    0.6391381676    0.1547703278    0.6381676098           -0.01
C1056      C    0.6971561764    0.1981396315    0.5302673892           -0.01
C1057      C    0.6705704425    0.0511475523    0.5547413721           -0.01
Cu1058    Cu    0.6634267333    0.1356113398    0.6090604740             1.0
N1059      N    0.6658955117    0.1339693410    0.5766654737           -0.01
N1060      N    0.6936348869    0.1298036682    0.6131091908           -0.01
N1061      N    0.6536695680    0.1604367169    0.6219149505           -0.01
N1062      N    0.6435500552    0.1199836036    0.6272028797           -0.01
N1063      N    0.5469862080    0.1355539972    0.5785501703           -0.01
N1064      N    0.6375331233    0.1227977011    0.7138201362           -0.01
N1065      N    0.7180229500    0.1964612627    0.5265816000           -0.01
N1066      N    0.6575087249    0.0450986170    0.5387690617           -0.01
C1067      C    0.6464768146    0.0861072474    0.6104483627           -0.01
C1068      C    0.6318366795    0.0752792012    0.5967420804           -0.01
C1069      C    0.6395633481    0.0636331344    0.5787380469           -0.01
C1070      C    0.6621078812    0.0624646593    0.5743419831           -0.01
C1071      C    0.6767566010    0.0727775867    0.5885363624           -0.01
C1072      C    0.6689659025    0.0845472577    0.6064445110           -0.01
C1073      C    0.5829426606    0.1469725828    0.5674894689           -0.01
C1074      C    0.5952070969    0.1600655254    0.5537636260           -0.01
C1075      C    0.6178252840    0.1576486184    0.5518368623           -0.01
C1076      C    0.6285524660    0.1421265752    0.5636800216           -0.01
C1077      C    0.6164655445    0.1296693568    0.5782005743           -0.01
C1078      C    0.5938453681    0.1320404521    0.5801669262           -0.01
H1079      H    0.6489261089    0.1392444713    0.5227615887           -0.01
H1080      H    0.6876506646    0.1313407836    0.5156683708           -0.01
H1081      H    0.7250400355    0.1235403109    0.5309708302           -0.01
H1082      H    0.7493599957    0.1185394296    0.5637339912           -0.01
H1083      H    0.7545046202    0.1174783937    0.6061228225           -0.01
H1084      H    0.7384726014    0.1209215049    0.6444551406           -0.01
H1085      H    0.5512142136    0.1595880943    0.5564695572           -0.01
H1086      H    0.6975559449    0.1623361547    0.6541679285           -0.01
H1087      H    0.6739245931    0.1664985534    0.6873682165           -0.01
H1088      H    0.6659915967    0.1015770068    0.6912319009           -0.01
H1089      H    0.6899486665    0.0975912396    0.6582967546           -0.01
H1090      H    0.6468513774    0.1529643493    0.7132367284           -0.01
H1091      H    0.6493453408    0.2111325162    0.6249266577           -0.01
H1092      H    0.6251811507    0.2017837463    0.6567493276           -0.01
H1093      H    0.6050675427    0.1746069869    0.6781386456           -0.01
H1094      H    0.5957621241    0.1385918033    0.6826875935           -0.01
H1095      H    0.6005060562    0.1024338630    0.6703209248           -0.01
H1096      H    0.6175965884    0.0777502369    0.6444722278           -0.01
H1097      H    0.6863782513    0.2036386227    0.5170991038           -0.01
H1098      H    0.6881037159    0.0493641975    0.5530212847           -0.01
H1099      H    0.6143639993    0.0764358126    0.5994798486           -0.01
H1100      H    0.6279018442    0.0557889524    0.5680962770           -0.01
H1101      H    0.6942066067    0.0720566166    0.5855035248           -0.01
H1102      H    0.6804681344    0.0923869643    0.6171743455           -0.01
H1103      H    0.5871910143    0.1717530793    0.5439391888           -0.01
H1104      H    0.6268819252    0.1675781305    0.5406585476           -0.01
H1105      H    0.6243354617    0.1173731007    0.5869849794           -0.01
H1106      H    0.5848517081    0.1216945890    0.5909128633           -0.01
C1107      C    0.6682331533    0.1850643998    0.5949698747           -0.01
C1108      C    0.6897980659    0.1792313790    0.5906226167           -0.01
C1109      C    0.6993352076    0.1833725896    0.5695631710           -0.01
C1110      C    0.6873672268    0.1931552997    0.5523584522           -0.01
C1111      C    0.6655749181    0.1988086389    0.5561573825           -0.01
C1112      C    0.6557329379    0.1952682901    0.5769567490           -0.01
H1113      H    0.6992792805    0.1716028533    0.6035332584           -0.01
H1114      H    0.7161035001    0.1787917271    0.5666680910           -0.01
H1115      H    0.6561820139    0.2062146926    0.5430006361           -0.01
H1116      H    0.6388753829    0.1996574242    0.5796485819           -0.01
C1117      C    0.7797711319    0.3596180708    0.0593273117           -0.01
C1118      C    0.7718428825    0.3605960881    0.0369840484           -0.01
C1119      C    0.7498290353    0.3651868936    0.0329285065           -0.01
C1120      C    0.7356106774    0.3685741211    0.0511064694           -0.01
C1121      C    0.7132730511    0.3727727533    0.0478869392           -0.01
C1122      C    0.6993744582    0.3755765495    0.0665707714           -0.01
C1123      C    0.7076044879    0.3739956884    0.0886889756           -0.01
C1124      C    0.6943137102    0.3764222120    0.1079047164           -0.01
C1125      C    0.7033375967    0.3744207747    0.1296623922           -0.01
C1126      C    0.7256047913    0.3697467088    0.1319732040           -0.01
C1127      C    0.7298731667    0.3697243328    0.0918767216           -0.01
C1128      C    0.7440221545    0.3673661413    0.0731625689           -0.01
C1129      C    0.8727374625    0.3490850569    0.0670607807           -0.01
C1130      C    0.7360106170    0.3676290766    0.1541123325           -0.01
C1131      C    0.7402554944    0.3482867723    0.1627302533           -0.01
C1132      C    0.7537077320    0.3459595645    0.1816232892           -0.01
C1133      C    0.7633839274    0.3629319281    0.1918374208           -0.01
C1134      C    0.7582357012    0.3823938069    0.1837729543           -0.01
C1135      C    0.7445774393    0.3847053261    0.1650152348           -0.01
C1136      C    0.7808941605    0.3597870696    0.2085808038           -0.01
C1137      C    0.7744048240    0.3172303580    0.1162716012           -0.01
C1138      C    0.7845818415    0.3020031538    0.1291177708           -0.01
C1139      C    0.7984797199    0.3073375292    0.1470284741           -0.01
C1140      C    0.8030146969    0.3278001028    0.1513443118           -0.01
C1141      C    0.8182916977    0.3338672972    0.1677450747           -0.01
C1142      C    0.8235791378    0.3544272095    0.1703563867           -0.01
C1143      C    0.8134411909    0.3691920034    0.1568125363           -0.01
C1144      C    0.8189076249    0.3897588818    0.1583060610           -0.01
C1145      C    0.8091692619    0.4038002377    0.1436511050           -0.01
C1146      C    0.7935513755    0.3972833109    0.1277835311           -0.01
C1147      C    0.7976697947    0.3632647167    0.1408502938           -0.01
C1148      C    0.7924474116    0.3425431553    0.1381649930           -0.01
C1149      C    0.7344288908    0.2991751709    0.0302644455           -0.01
C1150      C    0.7610150558    0.4461669245    0.0547402411           -0.01
Cu1151    Cu    0.7681587786    0.3617025162    0.1090582085             1.0
N1152      N    0.7656898803    0.3633448817    0.0766632399           -0.01
N1153      N    0.7379506539    0.3675102021    0.1131071265           -0.01
N1154      N    0.7779159361    0.3368769764    0.1219123198           -0.01
N1155      N    0.7880355620    0.3773300107    0.1272007362           -0.01
N1156      N    0.8845991875    0.3617599702    0.0785474231           -0.01
N1157      N    0.7940528184    0.3745149339    0.2138179311           -0.01
N1158      N    0.7135621070    0.3008536220    0.0265787647           -0.01
N1159      N    0.7740767263    0.4522160124    0.0387679558           -0.01
C1160      C    0.7851088163    0.4112065597    0.1104466745           -0.01
C1161      C    0.7997489239    0.4220347301    0.0967404732           -0.01
C1162      C    0.7920222133    0.4336810133    0.0787366242           -0.01
C1163      C    0.7694776661    0.4348495819    0.0743406690           -0.01
C1164      C    0.7548289768    0.4245365248    0.0885349741           -0.01
C1165      C    0.7626197168    0.4127666384    0.1064429364           -0.01
C1166      C    0.8486426664    0.3503415789    0.0674867212           -0.01
C1167      C    0.8363781476    0.3372488137    0.0537607579           -0.01
C1168      C    0.8137599586    0.3396657869    0.0518341195           -0.01
C1169      C    0.8030328575    0.3551877189    0.0636775263           -0.01
C1170      C    0.8151198631    0.3676447514    0.0781981919           -0.01
C1171      C    0.8377400416    0.3652735895    0.0801644191           -0.01
H1172      H    0.7826590649    0.3580703199    0.0227592156           -0.01
H1173      H    0.7439345002    0.3659741632    0.0156662616           -0.01
H1174      H    0.7065452058    0.3737745386    0.0309689779           -0.01
H1175      H    0.6822253822    0.3787751019    0.0637323051           -0.01
H1176      H    0.6770809222    0.3798356746    0.1061211716           -0.01
H1177      H    0.6931130796    0.3763921037    0.1444533783           -0.01
H1178      H    0.8803710423    0.3377261280    0.0564665130           -0.01
H1179      H    0.7340296781    0.3349772648    0.1541654548           -0.01
H1180      H    0.7576611472    0.3308144488    0.1873655904           -0.01
H1181      H    0.7655943075    0.3957359366    0.1912300913           -0.01
H1182      H    0.7416371210    0.3997221188    0.1582950963           -0.01
H1183      H    0.7847344929    0.3443483107    0.2132341672           -0.01
H1184      H    0.7822400584    0.2861811349    0.1249233459           -0.01
H1185      H    0.8064043916    0.2955295018    0.1567460380           -0.01
H1186      H    0.8265181437    0.3227059827    0.1781356282           -0.01
H1187      H    0.8358236624    0.3587210971    0.1826850087           -0.01
H1188      H    0.8310797661    0.3948791849    0.1703188326           -0.01
H1189      H    0.8139891918    0.4195631333    0.1444705293           -0.01
H1190      H    0.7452067530    0.2936763055    0.0170960435           -0.01
H1191      H    0.7434817800    0.4479503329    0.0530202497           -0.01
H1192      H    0.8172216120    0.4208780537    0.0994781539           -0.01
H1193      H    0.8036836945    0.4415252911    0.0680949085           -0.01
H1194      H    0.7373789612    0.4252575632    0.0855022182           -0.01
H1195      H    0.7511175079    0.4049268347    0.1171727160           -0.01
H1196      H    0.8443941658    0.3255613538    0.0439361346           -0.01
H1197      H    0.8047032519    0.3297364175    0.0406557125           -0.01
H1198      H    0.8072500078    0.3799409248    0.0869827905           -0.01
H1199      H    0.8467337664    0.3756193149    0.0909104543           -0.01
C1200      C    0.7633521912    0.3122496230    0.0949669821           -0.01
C1201      C    0.7417872754    0.3180827349    0.0906198899           -0.01
C1202      C    0.7322500438    0.3139417783    0.0695604295           -0.01
C1203      C    0.7442179363    0.3041592367    0.0523555331           -0.01
C1204      C    0.7660102465    0.2985058121    0.0561542991           -0.01
C1205      C    0.7758523144    0.3020459093    0.0769536712           -0.01
H1206      H    0.7323061277    0.3257111351    0.1035306706           -0.01
H1207      H    0.7154817507    0.3185227061    0.0666654789           -0.01
H1208      H    0.7754030835    0.2910998869    0.0429974170           -0.01
H1209      H    0.7927098696    0.2976567120    0.0796453768           -0.01
C1210      C    0.5942498376    0.1731976880    0.9257068283           -0.01
C1211      C    0.6013552494    0.1909740596    0.9147852823           -0.01
C1212      C    0.6235218689    0.1935694160    0.9095779105           -0.01
C1213      C    0.6386911982    0.1785883305    0.9154710064           -0.01
C1214      C    0.6611786275    0.1807248081    0.9110574311           -0.01
C1215      C    0.6759981622    0.1655904574    0.9177441780           -0.01
C1216      C    0.6685305104    0.1482495855    0.9291395629           -0.01
C1217      C    0.6827324969    0.1328266630    0.9364127115           -0.01
C1218      C    0.6744232411    0.1159109284    0.9480119288           -0.01
C1219      C    0.6519286228    0.1147177699    0.9524760602           -0.01
C1220      C    0.6461041180    0.1461764988    0.9336139386           -0.01
C1221      C    0.6310731252    0.1611123311    0.9264594233           -0.01
C1222      C    0.5010468539    0.1655907605    0.9345881361           -0.01
C1223      C    0.6422478990    0.0974593911    0.9642913879           -0.01
C1224      C    0.6366615934    0.0992655550    0.9871605870           -0.01
C1225      C    0.6238014137    0.0844655393    0.9975054327           -0.01
C1226      C    0.6160545024    0.0678953544    0.9849691119           -0.01
C1227      C    0.6225726089    0.0656575778    0.9622889793           -0.01
C1228      C    0.6356418898    0.0803717660    0.9520338910           -0.01
C1229      C    0.5989971015    0.0548971248    0.9948980834           -0.01
C1230      C    0.5981077682    0.1480300144    0.9943319681           -0.01
C1231      C    0.5871405839    0.1441873364    0.0147791323           -0.01
C1232      C    0.5744702072    0.1266022574    0.0170791915           -0.01
C1233      C    0.5719182287    0.1134426222    0.9986368142           -0.01
C1234      C    0.5578795249    0.0966208541    0.9994352946           -0.01
C1235      C    0.5545199135    0.0847142840    0.9800626384           -0.01
C1236      C    0.5653802744    0.0893197543    0.9597453074           -0.01
C1237      C    0.5617992019    0.0782825810    0.9398360305           -0.01
C1238      C    0.5721546109    0.0840738544    0.9196940948           -0.01
C1239      C    0.5865142403    0.1007041555    0.9196063263           -0.01
C1240      C    0.5799407941    0.1057636195    0.9590398689           -0.01
C1241      C    0.5832185363    0.1177988461    0.9785341105           -0.01
C1242      C    0.6329630773    0.2271624307    0.9743514958           -0.01
C1243      C    0.6203410601    0.1382060231    0.8391655263           -0.01
Cu1244    Cu    0.6079465395    0.1336628076    0.9474183686             1.0
N1245      N    0.6092794088    0.1587172280    0.9308655100           -0.01
N1246      N    0.6386980227    0.1298407556    0.9452299389           -0.01
N1247      N    0.5965557800    0.1342676537    0.9773676256           -0.01
N1248      N    0.5902340153    0.1107409007    0.9393361989           -0.01
N1249      N    0.4907963356    0.1498454800    0.9267658278           -0.01
N1250      N    0.5873901199    0.0430638856    0.9820710648           -0.01
N1251      N    0.6537463870    0.2307294678    0.9721280810           -0.01
N1252      N    0.6072379002    0.1471695637    0.8250465841           -0.01
C1253      C    0.5954637074    0.1085844302    0.8982623187           -0.01
C1254      C    0.5812967091    0.1134431916    0.8803927167           -0.01
C1255      C    0.5893073934    0.1228523765    0.8609468859           -0.01
C1256      C    0.6116889605    0.1273311688    0.8589887453           -0.01
C1257      C    0.6259288272    0.1218491343    0.8765773326           -0.01
C1258      C    0.6178397763    0.1125684693    0.8960970620           -0.01
C1259      C    0.5251690002    0.1663178327    0.9348711716           -0.01
C1260      C    0.5356962089    0.1840558339    0.9420865924           -0.01
C1261      C    0.5583574281    0.1860094297    0.9400486133           -0.01
C1262      C    0.5708661238    0.1702099804    0.9308242196           -0.01
C1263      C    0.5604910779    0.1521481126    0.9246157739           -0.01
C1264      C    0.5378334482    0.1501419228    0.9266268328           -0.01
H1265      H    0.5898045721    0.2026608311    0.9100675622           -0.01
H1266      H    0.6287844167    0.2072729751    0.9010960540           -0.01
H1267      H    0.6673033562    0.1941137812    0.9025697761           -0.01
H1268      H    0.6932456899    0.1675324465    0.9142097041           -0.01
H1269      H    0.7001235971    0.1338402264    0.9331613453           -0.01
H1270      H    0.6853582538    0.1039912591    0.9535077623           -0.01
H1271      H    0.4920330603    0.1786931385    0.9404540396           -0.01
H1272      H    0.6413583626    0.1126061003    0.9966583405           -0.01
H1273      H    0.6187608370    0.0866328146    0.0149097841           -0.01
H1274      H    0.6167071720    0.0531015259    0.9521815236           -0.01
H1275      H    0.6396239674    0.0789685837    0.9342456865           -0.01
H1276      H    0.5940006936    0.0580694746    0.0120920542           -0.01
H1277      H    0.5879202830    0.1549618034    0.0285762708           -0.01
H1278      H    0.5659233637    0.1238133948    0.0328197387           -0.01
H1279      H    0.5491152684    0.0929805248    0.0148338360           -0.01
H1280      H    0.5431859605    0.0721403467    0.9808844886           -0.01
H1281      H    0.5505974488    0.0655825951    0.9396991333           -0.01
H1282      H    0.5687695176    0.0758291897    0.9042492512           -0.01
H1283      H    0.6212311604    0.2393862695    0.9730622323           -0.01
H1284      H    0.6378909016    0.1399412881    0.8375694082           -0.01
H1285      H    0.5639020789    0.1106175315    0.8818468101           -0.01
H1286      H    0.5779650803    0.1268642089    0.8476121039           -0.01
H1287      H    0.6432510953    0.1251076679    0.8754148025           -0.01
H1288      H    0.6290273199    0.1084740003    0.9094596262           -0.01
H1289      H    0.5263029078    0.1966743548    0.9486137520           -0.01
H1290      H    0.5660674553    0.2000535905    0.9451496436           -0.01
H1291      H    0.5697514500    0.1400622459    0.9169959338           -0.01
H1292      H    0.5302057181    0.1362523600    0.9209171455           -0.01
C1293      C    0.6078426371    0.1679445297    0.9899477409           -0.01
C1294      C    0.6296597325    0.1701673021    0.9833536887           -0.01
C1295      C    0.6379687425    0.1893972197    0.9781711189           -0.01
C1296      C    0.6245176959    0.2067100182    0.9791677364           -0.01
C1297      C    0.6024684142    0.2048229366    0.9853168624           -0.01
C1298      C    0.5937929219    0.1860551238    0.9909548516           -0.01
H1299      H    0.6402770077    0.1570771497    0.9823495644           -0.01
H1300      H    0.6549561152    0.1907206230    0.9732247721           -0.01
H1301      H    0.5919489540    0.2180113529    0.9859917558           -0.01
H1302      H    0.5767255081    0.1847981219    0.9956124836           -0.01
C1303      C    0.5942557204    0.8241105863    0.0939078333           -0.01
C1304      C    0.6013613554    0.8063342697    0.1048293101           -0.01
C1305      C    0.6235280380    0.8037390909    0.1100364795           -0.01
C1306      C    0.6386972072    0.8187202997    0.1041432494           -0.01
C1307      C    0.6611846895    0.8165840025    0.1085566195           -0.01
C1308      C    0.6760040563    0.8317184739    0.1018697417           -0.01
C1309      C    0.6685361806    0.8490592880    0.0904744291           -0.01
C1310      C    0.6827379920    0.8644823265    0.0832011552           -0.01
C1311      C    0.6744285137    0.8813979964    0.0716020179           -0.01
C1312      C    0.6519338489    0.8825909746    0.0671380915           -0.01
C1313      C    0.6461097351    0.8511321949    0.0860002580           -0.01
C1314      C    0.6310789127    0.8361962400    0.0931549063           -0.01
C1315      C    0.5010526057    0.8317167646    0.0850273755           -0.01
C1316      C    0.6422528982    0.8998492778    0.0553228564           -0.01
C1317      C    0.6366664127    0.8980430736    0.0324537076           -0.01
C1318      C    0.6238060366    0.9128429878    0.0221089827           -0.01
C1319      C    0.6160591093    0.9294131077    0.0346453782           -0.01
C1320      C    0.6225773910    0.9316509322    0.0573254521           -0.01
C1321      C    0.6356468668    0.9169368472    0.0675804177           -0.01
C1322      C    0.5990015288    0.9424112019    0.0247165653           -0.01
C1323      C    0.5981128859    0.8492783050    0.0252826648           -0.01
C1324      C    0.5871455004    0.8531208989    0.0048356014           -0.01
C1325      C    0.5744749749    0.8707058763    0.0025356620           -0.01
C1326      C    0.5719230553    0.8838654871    0.0209780659           -0.01
C1327      C    0.5578842209    0.9006871422    0.0201797175           -0.01
C1328      C    0.5545246856    0.9125936813    0.0395524074           -0.01
C1329      C    0.5653852521    0.9079882943    0.0598696383           -0.01
C1330      C    0.5618042666    0.9190254347    0.0797789507           -0.01
C1331      C    0.5721598885    0.9132342406    0.0999207907           -0.01
C1332      C    0.5865196410    0.8966040551    0.1000084243           -0.01
C1333      C    0.5799458988    0.8915445463    0.0605749402           -0.01
C1334      C    0.5832235649    0.8795093501    0.0410806656           -0.01
C1335      C    0.6329689463    0.7701461655    0.0452627996           -0.01
C1336      C    0.6203474166    0.8591024436    0.1804489068           -0.01
Cu1337    Cu    0.6079519478    0.8636455814    0.0721961785             1.0
N1338      N    0.6092851414    0.8385911684    0.0887490185           -0.01
N1339      N    0.6387034214    0.8674678808    0.0743843294           -0.01
N1340      N    0.5965609397    0.8630406498    0.0422470250           -0.01
N1341      N    0.5902393232    0.8865673440    0.0802785152           -0.01
N1342      N    0.4908020376    0.8474619609    0.0928497811           -0.01
N1343      N    0.5873945684    0.9542443449    0.0375436925           -0.01
N1344      N    0.6537523011    0.7665792954    0.0474860244           -0.01
N1345      N    0.6072444420    0.8501387945    0.1945679659           -0.01
C1346      C    0.5954693465    0.8887238482    0.1213523484           -0.01
C1347      C    0.5813025349    0.8838649690    0.1392220781           -0.01
C1348      C    0.5893134528    0.8744558447    0.1586678335           -0.01
C1349      C    0.6116950694    0.8699772323    0.1606257693           -0.01
C1350      C    0.6259347472    0.8754593851    0.1430370539           -0.01
C1351      C    0.6178454630    0.8847399890    0.1235174005           -0.01
C1352      C    0.5251747549    0.8309898868    0.0847441204           -0.01
C1353      C    0.5357020333    0.8132519719    0.0775285992           -0.01
C1354      C    0.5583632840    0.8112985583    0.0795663716           -0.01
C1355      C    0.5708719414    0.8270981065    0.0887906555           -0.01
C1356      C    0.5604968150    0.8451598894    0.0949992003           -0.01
C1357      C    0.5378391535    0.8471658971    0.0929883480           -0.01
H1358      H    0.5898108040    0.7946474041    0.1095471323           -0.01
H1359      H    0.6287907584    0.7900355723    0.1185182846           -0.01
H1360      H    0.6673095885    0.8031950769    0.1170442154           -0.01
H1361      H    0.6932516281    0.8297766231    0.1054040581           -0.01
H1362      H    0.7001291272    0.8634689025    0.0864523630           -0.01
H1363      H    0.6853633922    0.8933177549    0.0661060880           -0.01
H1364      H    0.4920388590    0.8186143152    0.0791615507           -0.01
H1365      H    0.6413631998    0.8847025681    0.0229559079           -0.01
H1366      H    0.6187653288    0.9106756755    0.0047046767           -0.01
H1367      H    0.6167119470    0.9442069347    0.0674329644           -0.01
H1368      H    0.6396290844    0.9183400579    0.0853685863           -0.01
H1369      H    0.5940049989    0.9392388154    0.0075226391           -0.01
H1370      H    0.5879251623    0.8423464409    0.9910384530           -0.01
H1371      H    0.5659279779    0.8734946732    0.9867951933           -0.01
H1372      H    0.5491198076    0.9043274041    0.0047812568           -0.01
H1373      H    0.5431906331    0.9251675274    0.0387306635           -0.01
H1374      H    0.5506024212    0.9317253303    0.0799159530           -0.01
H1375      H    0.5687748650    0.9214788749    0.1153656672           -0.01
H1376      H    0.6212371303    0.7579222318    0.0465521668           -0.01
H1377      H    0.6378972844    0.8573673197    0.1820448648           -0.01
H1378      H    0.5639078716    0.8866904892    0.1377681436           -0.01
H1379      H    0.5779712820    0.8704439181    0.1720027177           -0.01
H1380      H    0.6432570491    0.8722009909    0.1441994255           -0.01
H1381      H    0.6290328635    0.8888345508    0.1101547355           -0.01
H1382      H    0.5263087698    0.8006333767    0.0710015219           -0.01
H1383      H    0.5660733715    0.7972544606    0.0744652675           -0.01
H1384      H    0.5697571625    0.8572458292    0.1026189592           -0.01
H1385      H    0.5302113694    0.8610553972    0.0986981083           -0.01
C1386      C    0.6078479384    0.8293638673    0.0296667984           -0.01
C1387      C    0.6296651059    0.8271412693    0.0362606514           -0.01
C1388      C    0.6379743013    0.8079114176    0.0414431407           -0.01
C1389      C    0.6245233737    0.7905985109    0.0404466412           -0.01
C1390      C    0.6024740261    0.7924854161    0.0342977163           -0.01
C1391      C    0.5937983480    0.8112531602    0.0286598108           -0.01
H1392      H    0.6402822932    0.8402315070    0.0372646825           -0.01
H1393      H    0.6549617254    0.8065881502    0.0463893326           -0.01
H1394      H    0.5919546573    0.7792969152    0.0336229152           -0.01
H1395      H    0.5767308856    0.8125100255    0.0240023344           -0.01
C1396      C    0.7797696476    0.6376937442    0.9602886120           -0.01
C1397      C    0.7718413206    0.6367155826    0.9826318391           -0.01
C1398      C    0.7498274328    0.6321248212    0.9866872626           -0.01
C1399      C    0.7356091128    0.6287377817    0.9685092191           -0.01
C1400      C    0.7132714510    0.6245392011    0.9717286335           -0.01
C1401      C    0.6993729012    0.6217355957    0.9530447274           -0.01
C1402      C    0.7076030113    0.6233165984    0.9309265662           -0.01
C1403      C    0.6943122807    0.6208902677    0.9117107572           -0.01
C1404      C    0.7033362491    0.6228918411    0.8899531311           -0.01
C1405      C    0.7256034792    0.6275658486    0.8876424394           -0.01
C1406      C    0.7298717261    0.6275879024    0.9277389365           -0.01
C1407      C    0.7440206680    0.6299459020    0.9464531596           -0.01
C1408      C    0.8727360663    0.6482264998    0.9525555585           -0.01
C1409      C    0.7360093886    0.6296836151    0.8655033665           -0.01
C1410      C    0.7402544100    0.6490259711    0.8568856451           -0.01
C1411      C    0.7537067221    0.6513532779    0.8379926771           -0.01
C1412      C    0.7633828483    0.6343809596    0.8277784157           -0.01
C1413      C    0.7582344792    0.6149190365    0.8358426785           -0.01
C1414      C    0.7445761433    0.6126074200    0.8546003296           -0.01
C1415      C    0.7808931541    0.6375258867    0.8110351222           -0.01
C1416      C    0.7744037772    0.6800819122    0.9033447103           -0.01
C1417      C    0.7845809275    0.6953091803    0.8904987209           -0.01
C1418      C    0.7984788313    0.6899748948    0.8725880136           -0.01
C1419      C    0.8030136991    0.6695123387    0.8682719953           -0.01
C1420      C    0.8182907160    0.6634452180    0.8518712260           -0.01
C1421      C    0.8235780409    0.6428853077    0.8492597350           -0.01
C1422      C    0.8134399617    0.6281204445    0.8628034097           -0.01
C1423      C    0.8189062770    0.6075535589    0.8613097066           -0.01
C1424      C    0.8091677825    0.5935121238    0.8759644952           -0.01
C1425      C    0.7935498843    0.6000289823    0.8918320786           -0.01
C1426      C    0.7976685500    0.6340476626    0.8787656556           -0.01
C1427      C    0.7924462829    0.6547692213    0.8814511372           -0.01
C1428      C    0.7344276766    0.6981365760    0.9893519036           -0.01
C1429      C    0.7610130365    0.5511449195    0.9648747904           -0.01
Cu1430    Cu    0.7681574413    0.6356097201    0.9105576560             1.0
N1431      N    0.7656884291    0.6339671144    0.9429526004           -0.01
N1432      N    0.7379492947    0.6298021684    0.9065085801           -0.01
N1433      N    0.7779147893    0.6604353252    0.8977038154           -0.01
N1434      N    0.7880341889    0.6199822968    0.8924150459           -0.01
N1435      N    0.8845977519    0.6355516341    0.9410688350           -0.01
N1436      N    0.7940517402    0.6227980176    0.8057978984           -0.01
N1437      N    0.7135608708    0.6964581680    0.9930374976           -0.01
N1438      N    0.7740746193    0.5450956643    0.9808470620           -0.01
C1439      C    0.7851071859    0.5861056293    0.9091687733           -0.01
C1440      C    0.7997471844    0.5752773037    0.9228749204           -0.01
C1441      C    0.7920203460    0.5636309088    0.9408786319           -0.01
C1442      C    0.7694757776    0.5624623835    0.9452744995           -0.01
C1443      C    0.7548271959    0.5727755996    0.9310802436           -0.01
C1444      C    0.7626180641    0.5845455967    0.9131724203           -0.01
C1445      C    0.8486412640    0.6469700634    0.9521295244           -0.01
C1446      C    0.8363767799    0.6600627651    0.9658555716           -0.01
C1447      C    0.8137585702    0.6576458545    0.9677821103           -0.01
C1448      C    0.8030314138    0.6421240500    0.9559385186           -0.01
C1449      C    0.8151183911    0.6296670877    0.9414177746           -0.01
C1450      C    0.8377385901    0.6320381873    0.9394516467           -0.01
H1451      H    0.7826574725    0.6392412047    0.9968567327           -0.01
H1452      H    0.7439328376    0.6313374393    0.0039494800           -0.01
H1453      H    0.7065435453    0.6235373090    0.9886465625           -0.01
H1454      H    0.6822237969    0.6185370802    0.9558831050           -0.01
H1455      H    0.6770794664    0.6174768503    0.9134942110           -0.01
H1456      H    0.6931117676    0.6209206605    0.8751620915           -0.01
H1457      H    0.8803696804    0.6595853213    0.9631499609           -0.01
H1458      H    0.7340286461    0.6623354342    0.8654505501           -0.01
H1459      H    0.7576602469    0.6664984241    0.8322505343           -0.01
H1460      H    0.7655930293    0.6015769389    0.8283854386           -0.01
H1461      H    0.7416357131    0.5975905858    0.8613203143           -0.01
H1462      H    0.7847335942    0.6529646682    0.8063819195           -0.01
H1463      H    0.7822392260    0.7111311750    0.8946932894           -0.01
H1464      H    0.8064036051    0.7017829697    0.8628705896           -0.01
H1465      H    0.8265172625    0.6746065842    0.8414808073           -0.01
H1466      H    0.8358225792    0.6385914728    0.8369311134           -0.01
H1467      H    0.8310784259    0.6024333064    0.8492969271           -0.01
H1468      H    0.8139876202    0.5777492180    0.8751449362           -0.01
H1469      H    0.7452055296    0.7036353036    0.0025203947           -0.01
H1470      H    0.7434797444    0.5493615577    0.9665947054           -0.01
H1471      H    0.8172198882    0.5764339414    0.9201373100           -0.01
H1472      H    0.8036817459    0.5557865095    0.9515203119           -0.01
H1473      H    0.7373771662    0.5720545975    0.9341129335           -0.01
H1474      H    0.7511159367    0.5923855220    0.9024426769           -0.01
H1475      H    0.8443928368    0.6717501224    0.9756803340           -0.01
H1476      H    0.8047018873    0.6675751691    0.9789605818           -0.01
H1477      H    0.8072484900    0.6173710085    0.9326330316           -0.01
H1478      H    0.8467322872    0.6216925136    0.9287055429           -0.01
C1479      C    0.7633511060    0.6850625215    0.9246493396           -0.01
C1480      C    0.7417861412    0.6792294500    0.9289963030           -0.01
C1481      C    0.7322488668    0.6833702776    0.9500557707           -0.01
C1482      C    0.7442167630    0.6931526463    0.9672608014           -0.01
C1483      C    0.7660091194    0.6988060256    0.9634621632           -0.01
C1484      C    0.7758512327    0.6952660543    0.9426627906           -0.01
H1485      H    0.7323049890    0.6716011812    0.9160854172           -0.01
H1486      H    0.7154805370    0.6787893849    0.9529506207           -0.01
H1487      H    0.7754019587    0.7062118177    0.9766191481           -0.01
H1488      H    0.7927088229    0.6996552147    0.9399711840           -0.01
C1613      C    0.6667196195    0.7513760730    0.0356808368           -0.01
C1614      C    0.6776140624    0.7394890666    0.0251863014           -0.01
C1615      C    0.6901375559    0.7248895021    0.0136861998           -0.01
C1616      C    0.7005935524    0.7116613904    0.0048426852           -0.01
C1609      C    0.5873910840    0.0238150802    0.9940929894           -0.01
C1610      C    0.5884267657    0.0079396797    0.0039868627           -0.01
C1611      C    0.5885557549    0.9893374561    0.0155765497           -0.01
C1612      C    0.5873936044    0.9734931504    0.0255217680           -0.01
C1605      C    0.7740751018    0.5238258380    0.9941111874           -0.01
C1606      C    0.7739735100    0.5084178085    0.0049404980           -0.01
C1607      C    0.7739829255    0.4898784170    0.0166559202           -0.01
C1608      C    0.7740762438    0.4734858387    0.0255038304           -0.01
C1601      C    0.7005921494    0.2856484668    0.0147721183           -0.01
C1602      C    0.6907768498    0.2727354866    0.0046571845           -0.01
C1603      C    0.6783677421    0.2580268552    0.9931977959           -0.01
C1604      C    0.6667163446    0.2459346230    0.9839347274           -0.01
C1597      C    0.6306029035    0.1283729156    0.7392638748           -0.01
C1598      C    0.6262581617    0.1330992919    0.7583815843           -0.01
C1599      C    0.6203016931    0.1380373911    0.7806927928           -0.01
C1600      C    0.6141681201    0.1415943493    0.7996028456           -0.01
C1593      C    0.8174157435    0.3557196495    0.2996060873           -0.01
C1594      C    0.8113920534    0.3593373353    0.2806748517           -0.01
C1595      C    0.8052277946    0.3641372223    0.2583864462           -0.01
C1596      C    0.8009831706    0.3689395217    0.2392660343           -0.01
C1589      C    0.7309920223    0.2116656545    0.5147765617           -0.01
C1590      C    0.7423116538    0.2242447964    0.5058946867           -0.01
C1591      C    0.7548939240    0.2389389681    0.4946157484           -0.01
C1592      C    0.7648680737    0.2513805042    0.4839410420           -0.01
C1585      C    0.8174209706    0.6415974499    0.7200137137           -0.01
C1586      C    0.8129518368    0.6367339427    0.7390576570           -0.01
C1587      C    0.8069530516    0.6317494953    0.7613438555           -0.01
C1588      C    0.8009837928    0.6283745236    0.7803515970           -0.01
C1581      C    0.8442013302    0.5238194042    0.5255250200           -0.01
C1582      C    0.8449435205    0.5082772988    0.5149649122           -0.01
C1583      C    0.8450194655    0.4897329854    0.5032594917           -0.01
C1584      C    0.8441982318    0.4734964358    0.4940983601           -0.01
C1577      C    0.6141723904    0.8557127378    0.2200067730           -0.01
C1578      C    0.6196300245    0.8589700186    0.2392016518           -0.01
C1579      C    0.6257152001    0.8637372281    0.2615220565           -0.01
C1580      C    0.6306051568    0.8689338681    0.2803464220           -0.01
C1573      C    0.6575082653    0.0238232873    0.5254998862           -0.01
C1574      C    0.6579203347    0.0075220418    0.5164580828           -0.01
C1575      C    0.6579910656    0.9888752314    0.5049576408           -0.01
C1576      C    0.6575071778    0.9734847630    0.4941043344           -0.01
C1569      C    0.7309951301    0.7856443644    0.5048337827           -0.01
C1570      C    0.7425141515    0.7736829667    0.5144738495           -0.01
C1571      C    0.7551393115    0.7590732962    0.5258381070           -0.01
C1572      C    0.7648738270    0.7459354067    0.5356755634           -0.01
C1565      C    0.9682404340    0.6468128975    0.9298030876           -0.01
C1566      C    0.9490218854    0.6434413129    0.9317735485           -0.01
C1567      C    0.9264542127    0.6403175563    0.9347178456           -0.01
C1568      C    0.9071521266    0.6385882507    0.9380310093           -0.01
C1561      C    0.4071590206    0.8587172557    0.0815878482           -0.01
C1562      C    0.4262414389    0.8552213861    0.0844861870           -0.01
C1563      C    0.4487867444    0.8520782755    0.0875842045           -0.01
C1564      C    0.4682483169    0.8504968678    0.0898130842           -0.01
C1557      C    0.2005965350    0.7856439994    0.0147758566           -0.01
C1558      C    0.1903463909    0.7733836253    0.0041235393           -0.01
C1559      C    0.1778674478    0.7587586815    0.9926117976           -0.01
C1560      C    0.1667168466    0.7459339074    0.9839370042           -0.01
C1553      C    0.4071548910    0.1385908443    0.9380294476           -0.01
C1554      C    0.4264831261    0.1415535441    0.9364208362           -0.01
C1555      C    0.4490567132    0.1446548062    0.9334954715           -0.01
C1556      C    0.4682440851    0.1468108915    0.9298028387           -0.01
C1549      C    0.2740815868    0.0238240405    0.9941136296           -0.01
C1550      C    0.2743265465    0.0074969718    0.0031036503           -0.01
C1551      C    0.2743361336    0.9888402903    0.0145843398           -0.01
C1552      C    0.2740825627    0.9734842099    0.0255066103           -0.01
C1545      C    0.9071522986    0.3587230629    0.0815842054           -0.01
C1546      C    0.9264120865    0.3567601026    0.0849844359           -0.01
C1547      C    0.9489850058    0.3538142323    0.0881089350           -0.01
C1548      C    0.9682406874    0.3504971569    0.0898097731           -0.01
C1541      C    0.0873860589    0.5238159664    0.9940929392           -0.01
C1542      C    0.0884032061    0.5080352029    0.0041760155           -0.01
C1543      C    0.0885335930    0.4894445972    0.0157889281           -0.01
C1544      C    0.0873864086    0.4734931373    0.0255199206           -0.01
C1537      C    0.2005946439    0.2116637462    0.0048411239           -0.01
C1538      C    0.1907339408    0.2244152449    0.0151623181           -0.01
C1539      C    0.1783132540    0.2391012836    0.0266443810           -0.01
C1540      C    0.1667148695    0.2513750192    0.0356778838           -0.01
C1533      C    0.4633432605    0.1468117798    0.5898151457           -0.01
C1534      C    0.4827130119    0.1440616614    0.5882715510           -0.01
C1535      C    0.5052990321    0.1410241139    0.5853656339           -0.01
C1536      C    0.5244320107    0.1385896416    0.5815877543           -0.01
C1529      C    0.3174180115    0.1415955968    0.7200138839           -0.01
C1530      C    0.3127100137    0.1382181714    0.7393945149           -0.01
C1531      C    0.3067161242    0.1334216423    0.7617335267           -0.01
C1532      C    0.3009850813    0.1283750282    0.7803536510           -0.01
C1525      C    0.0244329873    0.3587204288    0.4380316428           -0.01
C1526      C    0.0053390709    0.3551964863    0.4352595222           -0.01
C1527      C    0.9827926415    0.3520478572    0.4321772499           -0.01
C1528      C    0.9633432609    0.3505009853    0.4298085247           -0.01
C1521      C    0.1141665416    0.3557116336    0.2200110558           -0.01
C1522      C    0.1203405163    0.3599280180    0.2387347059           -0.01
C1523      C    0.1265380611    0.3647984686    0.2609941020           -0.01
C1524      C    0.1306019731    0.3689315564    0.2803502578           -0.01
C1517      C    0.2648691226    0.2459318090    0.5356824775           -0.01
C1518      C    0.2540817722    0.2589446421    0.5268713775           -0.01
C1519      C    0.2415350655    0.2736667203    0.5155954708           -0.01
C1520      C    0.2309930622    0.2856435642    0.5048420911           -0.01
C1513      C    0.9633520599    0.6468127604    0.5898112172           -0.01
C1514      C    0.9826498568    0.6437161843    0.5881277881           -0.01
C1515      C    0.0052274751    0.6406323654    0.5852127954           -0.01
C1516      C    0.0244405983    0.6385890704    0.5815840779           -0.01
C1509      C    0.1141705513    0.6415961400    0.7996012473           -0.01
C1510      C    0.1202025210    0.6379690168    0.7806750918           -0.01
C1511      C    0.1263702331    0.6331674133    0.7583881746           -0.01
C1512      C    0.1306098401    0.6283742140    0.7392637253           -0.01
C1505      C    0.1575173699    0.5238221516    0.5255028816           -0.01
C1506      C    0.1567697704    0.5082728318    0.5149564435           -0.01
C1507      C    0.1566608692    0.4897079054    0.5032921527           -0.01
C1508      C    0.1575141741    0.4734823058    0.4941099744           -0.01
C1501      C    0.4633466358    0.8504924981    0.4297969198           -0.01
C1502      C    0.4827154406    0.8532485874    0.4313400172           -0.01
C1503      C    0.5053014814    0.8562873429    0.4342442359           -0.01
C1504      C    0.5244357632    0.8587159894    0.4380197529           -0.01
C1497      C    0.3009894275    0.8689303949    0.2392639030           -0.01
C1498      C    0.3056203560    0.8639514404    0.2582290532           -0.01
C1499      C    0.3116061880    0.8589756754    0.2805213985           -0.01
C1500      C    0.3174239640    0.8557079267    0.2996026734           -0.01
C1493      C    0.3442017072    0.9734904026    0.4940931475           -0.01
C1494      C    0.3433262837    0.9891072228    0.5045036997           -0.01
C1495      C    0.3432049228    0.0076756676    0.5161608668           -0.01
C1496      C    0.3441984436    0.0238118382    0.5255228705           -0.01
C1489      C    0.2648793301    0.7513702697    0.4839316714           -0.01
C1490      C    0.2544521948    0.7392459737    0.4945944343           -0.01
C1491      C    0.2419857975    0.7246117362    0.5061060044           -0.01
C1492      C    0.2310034105    0.7116581716    0.5147717689           -0.01
loop_
_geom_bond_atom_site_label_1
_geom_bond_atom_site_label_2
_geom_bond_distance
_geom_bond_site_symmetry_2
_ccdc_geom_bond_type
C1           C2 1.408       .   S
C1          N36 1.361       .   D
C1          C53 1.475       .   S
C2           C3 1.401       .   D
C2          H56 1.083       .   S
C3           C4 1.400       .   S
C3          H57 1.083       .   S
C5           C4 1.407       .   D
C12          C4 1.404       .   S
C5           C6 1.406       .   S
H58          C5 1.083       .   S
C6           C7 1.405       .   D
C6          H59 1.083       .   S
C7           C8 1.406       .   S
C7          C11 1.404       .   S
C8          H60 1.083       .   S
C8           C9 1.406       .   D
C9          C10 1.403       .   S
C9          H61 1.083       .   S
C10         N37 1.355       .   D
C10         C14 1.462       .   S
C11         C12 1.413       .   D
C11         N37 1.357       .   S
N36         C12 1.367       .   S
C13         H62 1.083       .   S
C13         C50 1.476       .   S
N40         C13 1.299       .   D
C14         C15 1.399       .   D
C14         C19 1.400       .   S
C15         C16 1.396       .   S
C15         H63 1.083       .   S
C16         C17 1.404       .   D
C16         H64 1.083       .   S
C17         C20 1.473       .   S
C17         C18 1.406       .   S
C18         C19 1.397       .   D
C18         H65 1.083       .   S
C19         H66 1.083       .   S
C20         H67 1.082       .   S
C20         N41 1.300       .   D
C21         C84 1.467       .   S
C21         N38 1.357       .   D
C21         C22 1.405       .   S
C22         C23 1.403       .   D
C22         H68 1.083       .   S
C23         H69 1.083       .   S
C23         C24 1.403       .   S
C24         C32 1.404       .   D
C25         C24 1.405       .   S
C25         C26 1.404       .   D
C25         H70 1.083       .   S
C26         H71 1.083       .   S
C27         C26 1.406       .   S
C27         C28 1.401       .   S
C27         C31 1.405       .   D
C28         C29 1.402       .   D
C28         H72 1.083       .   S
C29         H73 1.083       .   S
C29         C30 1.406       .   S
C30         N39 1.361       .   D
C30         C44 1.470       .   S
C31         C32 1.414       .   S
C31         N39 1.364       .   S
C32         N38 1.361       .   S
C33         H74 1.083       .   S
C33         C87 1.474       .   S
C33         N42 1.300       .   D
C34         N43 1.300       .   D
C34         C47 1.473       .   S
C34         H75 1.084       .   S
Cu35        N38 1.903       .   S
Cu35        N39 1.922       .   S
Cu35        N37 1.902       .   S
N36        Cu35 1.924       .   S
N40       C1501 1.405       .   S
N41       C1493 1.456       .   S
N42       C1489 1.457       .   S
N43       C1500 1.605       .   S
C44         C49 1.400       .   D
C45         C44 1.403       .   S
C45         H76 1.084       .   S
C45         C46 1.395       .   D
C46         C47 1.405       .   S
C46         H77 1.083       .   S
C48         C47 1.404       .   D
C48         H78 1.083       .   S
C48         C49 1.397       .   S
C49         H79 1.079       .   S
C50         C55 1.407       .   S
C50         C51 1.403       .   D
C51         C52 1.397       .   S
C51         H80 1.083       .   S
C52         C53 1.404       .   D
C52         H81 1.083       .   S
C53         C54 1.400       .   S
C54         H82 1.077       .   S
C54         C55 1.397       .   D
C55         H83 1.083       .   S
C84         C85 1.398       .   S
C89         C84 1.474       .   D
C85         C86 1.402       .   D
C85         H90 1.083       .   S
C86         H91 1.083       .   S
C87         C86 1.410       .   S
C87         C88 1.402       .   D
C88         H92 1.084       .   S
C88         C89 1.389       .   S
C89         H93 1.083       .   S
C94         C95 1.408       .   S
C94        N129 1.361       .   D
C94        C146 1.475       .   S
C95         C96 1.401       .   D
C95        H149 1.083       .   S
C96         C97 1.400       .   S
C96        H150 1.083       .   S
C98         C97 1.407       .   D
C105        C97 1.404       .   S
C98         C99 1.406       .   S
H151        C98 1.083       .   S
C99        C100 1.405       .   D
C99        H152 1.083       .   S
C100       C101 1.406       .   S
C100       C104 1.404       .   S
C101       H153 1.083       .   S
C101       C102 1.406       .   D
C102       C103 1.403       .   S
C102       H154 1.083       .   S
C103       N130 1.355       .   D
C103       C107 1.462       .   S
C104       C105 1.413       .   D
C104       N130 1.357       .   S
N129       C105 1.367       .   S
C106       H155 1.083       .   S
C106       C143 1.476       .   S
N133       C106 1.299       .   D
C107       C108 1.399       .   D
C107       C112 1.400       .   S
C108       C109 1.396       .   S
C108       H156 1.083       .   S
C109       C110 1.404       .   D
C109       H157 1.083       .   S
C110       C113 1.473       .   S
C110       C111 1.406       .   S
C111       C112 1.397       .   D
C111       H158 1.083       .   S
C112       H159 1.083       .   S
C113       H160 1.082       .   S
C113       N134 1.300       .   D
C114       C177 1.467       .   S
C114       N131 1.357       .   D
C114       C115 1.405       .   S
C115       C116 1.403       .   D
C115       H161 1.083       .   S
C116       H162 1.083       .   S
C116       C117 1.403       .   S
C117       C125 1.404       .   D
C118       C117 1.405       .   S
C118       C119 1.404       .   D
C118       H163 1.083       .   S
C119       H164 1.083       .   S
C120       C119 1.406       .   S
C120       C121 1.401       .   S
C120       C124 1.405       .   D
C121       C122 1.402       .   D
C121       H165 1.083       .   S
C122       H166 1.083       .   S
C122       C123 1.406       .   S
C123       N132 1.361       .   D
C123       C137 1.470       .   S
C124       C125 1.414       .   S
C124       N132 1.364       .   S
C125       N131 1.361       .   S
C126       H167 1.083       .   S
C126       C180 1.474       .   S
C126       N135 1.300       .   D
C127       N136 1.300       .   D
C127       C140 1.473       .   S
C127       H168 1.084       .   S
Cu128      N131 1.903       .   S
Cu128      N132 1.922       .   S
Cu128      N130 1.902       .   S
N129      Cu128 1.924       .   S
N133      C1516 1.406       .   S
N134      C1512 1.605       .   S
N135      C1492 1.457       .   S
N136      C1505 1.609       .   S
C137       C142 1.400       .   D
C138       C137 1.403       .   S
C138       H169 1.084       .   S
C138       C139 1.395       .   D
C139       C140 1.405       .   S
C139       H170 1.083       .   S
C141       C140 1.404       .   D
C141       H171 1.083       .   S
C141       C142 1.397       .   S
C142       H172 1.079       .   S
C143       C148 1.407       .   S
C143       C144 1.403       .   D
C144       C145 1.397       .   S
C144       H173 1.083       .   S
C145       C146 1.404       .   D
C145       H174 1.083       .   S
C146       C147 1.400       .   S
C147       H175 1.077       .   S
C147       C148 1.397       .   D
C148       H176 1.083       .   S
C177       C178 1.398       .   S
C182       C177 1.474       .   D
C178       C179 1.402       .   D
C178       H183 1.083       .   S
C179       H184 1.083       .   S
C180       C179 1.410       .   S
C180       C181 1.402       .   D
C181       H185 1.084       .   S
C181       C182 1.389       .   S
C182       H186 1.083       .   S
C187       C188 1.408       .   S
C187       N222 1.361       .   D
C187       C239 1.475       .   S
C188       C189 1.401       .   D
C188       H242 1.083       .   S
C189       C190 1.400       .   S
C189       H243 1.083       .   S
C191       C190 1.407       .   D
C198       C190 1.404       .   S
C191       C192 1.406       .   S
H244       C191 1.083       .   S
C192       C193 1.405       .   D
C192       H245 1.083       .   S
C193       C194 1.406       .   S
C193       C197 1.404       .   S
C194       H246 1.083       .   S
C194       C195 1.406       .   D
C195       C196 1.403       .   S
C195       H247 1.083       .   S
C196       N223 1.355       .   D
C196       C200 1.462       .   S
C197       C198 1.413       .   D
C197       N223 1.357       .   S
N222       C198 1.367       .   S
C199       H248 1.083       .   S
C199       C236 1.476       .   S
N226       C199 1.299       .   D
C200       C201 1.399       .   D
C200       C205 1.400       .   S
C201       C202 1.396       .   S
C201       H249 1.083       .   S
C202       C203 1.404       .   D
C202       H250 1.083       .   S
C203       C206 1.473       .   S
C203       C204 1.406       .   S
C204       C205 1.397       .   D
C204       H251 1.083       .   S
C205       H252 1.083       .   S
C206       H253 1.082       .   S
C206       N227 1.300       .   D
C207       C270 1.467       .   S
C207       N224 1.357       .   D
C207       C208 1.405       .   S
C208       C209 1.403       .   D
C208       H254 1.083       .   S
C209       H255 1.083       .   S
C209       C210 1.403       .   S
C210       C218 1.404       .   D
C211       C210 1.405       .   S
C211       C212 1.404       .   D
C211       H256 1.083       .   S
C212       H257 1.083       .   S
C213       C212 1.406       .   S
C213       C214 1.401       .   S
C213       C217 1.405       .   D
C214       C215 1.402       .   D
C214       H258 1.083       .   S
C215       H259 1.083       .   S
C215       C216 1.406       .   S
C216       N225 1.361       .   D
C216       C230 1.470       .   S
C217       C218 1.414       .   S
C217       N225 1.364       .   S
C218       N224 1.361       .   S
C219       H260 1.083       .   S
C219       C273 1.474       .   S
C219       N228 1.300       .   D
C220       N229 1.300       .   D
C220       C233 1.473       .   S
C220       H261 1.084       .   S
Cu221      N224 1.903       .   S
Cu221      N225 1.922       .   S
Cu221      N223 1.902       .   S
N222      Cu221 1.924       .   S
N226      C1525 1.406       .   S
N227      C1524 1.605       .   S
N228      C1520 1.457       .   S
N229      C1508 1.609       .   S
C230       C235 1.400       .   D
C231       C230 1.403       .   S
C231       H262 1.084       .   S
C231       C232 1.395       .   D
C232       C233 1.405       .   S
C232       H263 1.083       .   S
C234       C233 1.404       .   D
C234       H264 1.083       .   S
C234       C235 1.397       .   S
C235       H265 1.079       .   S
C236       C241 1.407       .   S
C236       C237 1.403       .   D
C237       C238 1.397       .   S
C237       H266 1.083       .   S
C238       C239 1.404       .   D
C238       H267 1.083       .   S
C239       C240 1.400       .   S
C240       H268 1.077       .   S
C240       C241 1.397       .   D
C241       H269 1.083       .   S
C270       C271 1.398       .   S
C275       C270 1.474       .   D
C271       C272 1.402       .   D
C271       H276 1.083       .   S
C272       H277 1.083       .   S
C273       C272 1.410       .   S
C273       C274 1.402       .   D
C274       H278 1.084       .   S
C274       C275 1.389       .   S
C275       H279 1.083       .   S
C280       C281 1.408       .   S
C280       N315 1.361       .   D
C280       C332 1.475       .   S
C281       C282 1.401       .   D
C281       H335 1.083       .   S
C282       C283 1.400       .   S
C282       H336 1.083       .   S
C284       C283 1.407       .   D
C291       C283 1.404       .   S
C284       C285 1.406       .   S
H337       C284 1.083       .   S
C285       C286 1.405       .   D
C285       H338 1.083       .   S
C286       C287 1.406       .   S
C286       C290 1.404       .   S
C287       H339 1.083       .   S
C287       C288 1.406       .   D
C288       C289 1.403       .   S
C288       H340 1.083       .   S
C289       N316 1.355       .   D
C289       C293 1.462       .   S
C290       C291 1.413       .   D
C290       N316 1.357       .   S
N315       C291 1.367       .   S
C292       H341 1.083       .   S
C292       C329 1.476       .   S
N319       C292 1.299       .   D
C293       C294 1.399       .   D
C293       C298 1.400       .   S
C294       C295 1.396       .   S
C294       H342 1.083       .   S
C295       C296 1.404       .   D
C295       H343 1.083       .   S
C296       C299 1.473       .   S
C296       C297 1.406       .   S
C297       C298 1.397       .   D
C297       H344 1.083       .   S
C298       H345 1.083       .   S
C299       H346 1.082       .   S
C299       N320 1.300       .   D
C300       C363 1.467       .   S
C300       N317 1.357       .   D
C300       C301 1.405       .   S
C301       C302 1.403       .   D
C301       H347 1.083       .   S
C302       H348 1.083       .   S
C302       C303 1.403       .   S
C303       C311 1.404       .   D
C304       C303 1.405       .   S
C304       C305 1.404       .   D
C304       H349 1.083       .   S
C305       H350 1.083       .   S
C306       C305 1.406       .   S
C306       C307 1.401       .   S
C306       C310 1.405       .   D
C307       C308 1.402       .   D
C307       H351 1.083       .   S
C308       H352 1.083       .   S
C308       C309 1.406       .   S
C309       N318 1.361       .   D
C309       C323 1.470       .   S
C310       C311 1.414       .   S
C310       N318 1.364       .   S
C311       N317 1.361       .   S
C312       H353 1.083       .   S
C312       C366 1.474       .   S
C312       N321 1.300       .   D
C313       N322 1.300       .   D
C313       C326 1.473       .   S
C313       H354 1.084       .   S
Cu314      N317 1.903       .   S
Cu314      N318 1.922       .   S
Cu314      N316 1.902       .   S
N315      Cu314 1.924       .   S
N319      C1533 1.406       .   S
N320      C1496 1.456   1_545   S
N321      C1517 1.457       .   S
N322      C1529 1.605       .   S
C323       C328 1.400       .   D
C324       C323 1.403       .   S
C324       H355 1.084       .   S
C324       C325 1.395       .   D
C325       C326 1.405       .   S
C325       H356 1.083       .   S
C327       C326 1.404       .   D
C327       H357 1.083       .   S
C327       C328 1.397       .   S
C328       H358 1.079       .   S
C329       C334 1.407       .   S
C329       C330 1.403       .   D
C330       C331 1.397       .   S
C330       H359 1.083       .   S
C331       C332 1.404       .   D
C331       H360 1.083       .   S
C332       C333 1.400       .   S
C333       H361 1.077       .   S
C333       C334 1.397       .   D
C334       H362 1.083       .   S
C363       C364 1.398       .   S
C368       C363 1.474       .   D
C364       C365 1.402       .   D
C364       H369 1.083       .   S
C365       H370 1.083       .   S
C366       C365 1.410       .   S
C366       C367 1.402       .   D
C367       H371 1.084       .   S
C367       C368 1.389       .   S
C368       H372 1.083       .   S
C373       C374 1.408       .   S
C373       N408 1.361       .   D
C373       C425 1.475       .   S
C374       C375 1.401       .   D
C374       H428 1.083       .   S
C375       C376 1.400       .   S
C375       H429 1.083       .   S
C377       C376 1.407       .   D
C384       C376 1.404       .   S
C377       C378 1.406       .   S
H430       C377 1.083       .   S
C378       C379 1.405       .   D
C378       H431 1.083       .   S
C379       C380 1.406       .   S
C379       C383 1.404       .   S
C380       H432 1.083       .   S
C380       C381 1.406       .   D
C381       C382 1.403       .   S
C381       H433 1.083       .   S
C382       N409 1.355       .   D
C382       C386 1.462       .   S
C383       C384 1.413       .   D
C383       N409 1.357       .   S
N408       C384 1.367       .   S
C385       H434 1.083       .   S
C385       C422 1.476       .   S
N412       C385 1.299       .   D
C386       C387 1.399       .   D
C386       C391 1.400       .   S
C387       C388 1.396       .   S
C387       H435 1.083       .   S
C388       C389 1.404       .   D
C388       H436 1.083       .   S
C389       C392 1.473       .   S
C389       C390 1.406       .   S
C390       C391 1.397       .   D
C390       H437 1.083       .   S
C391       H438 1.083       .   S
C392       H439 1.082       .   S
C392       N413 1.300       .   D
C393       C456 1.467       .   S
C393       N410 1.357       .   D
C393       C394 1.405       .   S
C394       C395 1.403       .   D
C394       H440 1.083       .   S
C395       H441 1.083       .   S
C395       C396 1.403       .   S
C396       C404 1.404       .   D
C397       C396 1.405       .   S
C397       C398 1.404       .   D
C397       H442 1.083       .   S
C398       H443 1.083       .   S
C399       C398 1.406       .   S
C399       C400 1.401       .   S
C399       C403 1.405       .   D
C400       C401 1.402       .   D
C400       H444 1.083       .   S
C401       H445 1.083       .   S
C401       C402 1.406       .   S
C402       N411 1.361       .   D
C402       C416 1.470       .   S
C403       C404 1.414       .   S
C403       N411 1.364       .   S
C404       N410 1.361       .   S
C405       H446 1.083       .   S
C405       C459 1.474       .   S
C405       N414 1.300       .   D
C406       N415 1.300       .   D
C406       C419 1.473       .   S
C406       H447 1.084       .   S
Cu407      N410 1.903       .   S
Cu407      N411 1.922       .   S
Cu407      N409 1.902       .   S
N408      Cu407 1.924       .   S
N412      C1548 1.405       .   S
N413      C1544 1.456       .   S
N414      C1540 1.457       .   S
N415      C1521 1.605       .   S
C416       C421 1.400       .   D
C417       C416 1.403       .   S
C417       H448 1.084       .   S
C417       C418 1.395       .   D
C418       C419 1.405       .   S
C418       H449 1.083       .   S
C420       C419 1.404       .   D
C420       H450 1.083       .   S
C420       C421 1.397       .   S
C421       H451 1.079       .   S
C422       C427 1.407       .   S
C422       C423 1.403       .   D
C423       C424 1.397       .   S
C423       H452 1.083       .   S
C424       C425 1.404       .   D
C424       H453 1.083       .   S
C425       C426 1.400       .   S
C426       H454 1.077       .   S
C426       C427 1.397       .   D
C427       H455 1.083       .   S
C456       C457 1.398       .   S
C461       C456 1.474       .   D
C457       C458 1.402       .   D
C457       H462 1.083       .   S
C458       H463 1.083       .   S
C459       C458 1.410       .   S
C459       C460 1.402       .   D
C460       H464 1.084       .   S
C460       C461 1.389       .   S
C461       H465 1.083       .   S
C466       C467 1.408       .   S
C466       N501 1.361       .   D
C466       C518 1.475       .   S
C467       C468 1.401       .   D
C467       H521 1.083       .   S
C468       C469 1.400       .   S
C468       H522 1.083       .   S
C470       C469 1.407       .   D
C477       C469 1.404       .   S
C470       C471 1.406       .   S
H523       C470 1.083       .   S
C471       C472 1.405       .   D
C471       H524 1.083       .   S
C472       C473 1.406       .   S
C472       C476 1.404       .   S
C473       H525 1.083       .   S
C473       C474 1.406       .   D
C474       C475 1.403       .   S
C474       H526 1.083       .   S
C475       N502 1.355       .   D
C475       C479 1.462       .   S
C476       C477 1.413       .   D
C476       N502 1.357       .   S
N501       C477 1.367       .   S
C478       H527 1.083       .   S
C478       C515 1.476       .   S
N505       C478 1.299       .   D
C479       C480 1.399       .   D
C479       C484 1.400       .   S
C480       C481 1.396       .   S
C480       H528 1.083       .   S
C481       C482 1.404       .   D
C481       H529 1.083       .   S
C482       C485 1.473       .   S
C482       C483 1.406       .   S
C483       C484 1.397       .   D
C483       H530 1.083       .   S
C484       H531 1.083       .   S
C485       H532 1.082       .   S
C485       N506 1.300       .   D
C486       C549 1.467       .   S
C486       N503 1.357       .   D
C486       C487 1.405       .   S
C487       C488 1.403       .   D
C487       H533 1.083       .   S
C488       H534 1.083       .   S
C488       C489 1.403       .   S
C489       C497 1.404       .   D
C490       C489 1.405       .   S
C490       C491 1.404       .   D
C490       H535 1.083       .   S
C491       H536 1.083       .   S
C492       C491 1.406       .   S
C492       C493 1.401       .   S
C492       C496 1.405       .   D
C493       C494 1.402       .   D
C493       H537 1.083       .   S
C494       H538 1.083       .   S
C494       C495 1.406       .   S
C495       N504 1.361       .   D
C495       C509 1.470       .   S
C496       C497 1.414       .   S
C496       N504 1.364       .   S
C497       N503 1.361       .   S
C498       H539 1.083       .   S
C498       C552 1.474       .   S
C498       N507 1.300       .   D
C499       N508 1.300       .   D
C499       C512 1.473       .   S
C499       H540 1.084       .   S
Cu500      N503 1.903       .   S
Cu500      N504 1.922       .   S
Cu500      N502 1.902       .   S
N501      Cu500 1.924       .   S
N505      C1553 1.405       .   S
N506      C1532 1.605       .   S
N507      C1537 1.457   1_556   S
N508      C1549 1.609       .   S
C509       C514 1.400       .   D
C510       C509 1.403       .   S
C510       H541 1.084       .   S
C510       C511 1.395       .   D
C511       C512 1.405       .   S
C511       H542 1.083       .   S
C513       C512 1.404       .   D
C513       H543 1.083       .   S
C513       C514 1.397       .   S
C514       H544 1.079       .   S
C515       C520 1.407       .   S
C515       C516 1.403       .   D
C516       C517 1.397       .   S
C516       H545 1.083       .   S
C517       C518 1.404       .   D
C517       H546 1.083       .   S
C518       C519 1.400       .   S
C519       H547 1.077       .   S
C519       C520 1.397       .   D
C520       H548 1.083       .   S
C549       C550 1.398       .   S
C554       C549 1.474       .   D
C550       C551 1.402       .   D
C550       H555 1.083       .   S
C551       H556 1.083       .   S
C552       C551 1.410       .   S
C552       C553 1.402       .   D
C553       H557 1.084       .   S
C553       C554 1.389       .   S
C554       H558 1.083       .   S
C559       C560 1.408       .   S
C559       N594 1.361       .   D
C559       C611 1.475       .   S
C560       C561 1.401       .   D
C560       H614 1.083       .   S
C561       C562 1.400       .   S
C561       H615 1.083       .   S
C563       C562 1.407       .   D
C570       C562 1.404       .   S
C563       C564 1.406       .   S
H616       C563 1.083       .   S
C564       C565 1.405       .   D
C564       H617 1.083       .   S
C565       C566 1.406       .   S
C565       C569 1.404       .   S
C566       H618 1.083       .   S
C566       C567 1.406       .   D
C567       C568 1.403       .   S
C567       H619 1.083       .   S
C568       N595 1.355       .   D
C568       C572 1.462       .   S
C569       C570 1.413       .   D
C569       N595 1.357       .   S
N594       C570 1.367       .   S
C571       H620 1.083       .   S
C571       C608 1.476       .   S
N598       C571 1.299       .   D
C572       C573 1.399       .   D
C572       C577 1.400       .   S
C573       C574 1.396       .   S
C573       H621 1.083       .   S
C574       C575 1.404       .   D
C574       H622 1.083       .   S
C575       C578 1.473       .   S
C575       C576 1.406       .   S
C576       C577 1.397       .   D
C576       H623 1.083       .   S
C577       H624 1.083       .   S
C578       H625 1.082       .   S
C578       N599 1.300       .   D
C579       C642 1.467       .   S
C579       N596 1.357       .   D
C579       C580 1.405       .   S
C580       C581 1.403       .   D
C580       H626 1.083       .   S
C581       H627 1.083       .   S
C581       C582 1.403       .   S
C582       C590 1.404       .   D
C583       C582 1.405       .   S
C583       C584 1.404       .   D
C583       H628 1.083       .   S
C584       H629 1.083       .   S
C585       C584 1.406       .   S
C585       C586 1.401       .   S
C585       C589 1.405       .   D
C586       C587 1.402       .   D
C586       H630 1.083       .   S
C587       H631 1.083       .   S
C587       C588 1.406       .   S
C588       N597 1.361       .   D
C588       C602 1.470       .   S
C589       C590 1.414       .   S
C589       N597 1.364       .   S
C590       N596 1.361       .   S
C591       H632 1.083       .   S
C591       C645 1.474       .   S
C591       N600 1.300       .   D
C592       N601 1.300       .   D
C592       C605 1.473       .   S
C592       H633 1.084       .   S
Cu593      N596 1.903       .   S
Cu593      N597 1.922       .   S
Cu593      N595 1.902       .   S
N594      Cu593 1.924       .   S
N598      C1561 1.405       .   S
N599      C1497 1.605       .   S
N600      C1557 1.457       .   S
N601      C1552 1.609   1_564   S
C602       C607 1.400       .   D
C603       C602 1.403       .   S
C603       H634 1.084       .   S
C603       C604 1.395       .   D
C604       C605 1.405       .   S
C604       H635 1.083       .   S
C606       C605 1.404       .   D
C606       H636 1.083       .   S
C606       C607 1.397       .   S
C607       H637 1.079       .   S
C608       C613 1.407       .   S
C608       C609 1.403       .   D
C609       C610 1.397       .   S
C609       H638 1.083       .   S
C610       C611 1.404       .   D
C610       H639 1.083       .   S
C611       C612 1.400       .   S
C612       H640 1.077       .   S
C612       C613 1.397       .   D
C613       H641 1.083       .   S
C642       C643 1.398       .   S
C647       C642 1.474       .   D
C643       C644 1.402       .   D
C643       H648 1.083       .   S
C644       H649 1.083       .   S
C645       C644 1.410       .   S
C645       C646 1.402       .   D
C646       H650 1.084       .   S
C646       C647 1.389       .   S
C647       H651 1.083       .   S
C652       C653 1.408       .   S
C652       N687 1.361       .   D
C652       C704 1.475       .   S
C653       C654 1.401       .   D
C653       H707 1.083       .   S
C654       C655 1.400       .   S
C654       H708 1.083       .   S
C656       C655 1.407       .   D
C663       C655 1.404       .   S
C656       C657 1.406       .   S
H709       C656 1.083       .   S
C657       C658 1.405       .   D
C657       H710 1.083       .   S
C658       C659 1.406       .   S
C658       C662 1.404       .   S
C659       H711 1.083       .   S
C659       C660 1.406       .   D
C660       C661 1.403       .   S
C660       H712 1.083       .   S
C661       N688 1.355       .   D
C661       C665 1.462       .   S
C662       C663 1.413       .   D
C662       N688 1.357       .   S
N687       C663 1.367       .   S
C664       H713 1.083       .   S
C664       C701 1.476       .   S
N691       C664 1.299       .   D
C665       C666 1.399       .   D
C665       C670 1.400       .   S
C666       C667 1.396       .   S
C666       H714 1.083       .   S
C667       C668 1.404       .   D
C667       H715 1.083       .   S
C668       C671 1.473       .   S
C668       C669 1.406       .   S
C669       C670 1.397       .   D
C669       H716 1.083       .   S
C670       H717 1.083       .   S
C671       H718 1.082       .   S
C671       N692 1.300       .   D
C672       C735 1.467       .   S
C672       N689 1.357       .   D
C672       C673 1.405       .   S
C673       C674 1.403       .   D
C673       H719 1.083       .   S
C674       H720 1.083       .   S
C674       C675 1.403       .   S
C675       C683 1.404       .   D
C676       C675 1.405       .   S
C676       C677 1.404       .   D
C676       H721 1.083       .   S
C677       H722 1.083       .   S
C678       C677 1.406       .   S
C678       C679 1.401       .   S
C678       C682 1.405       .   D
C679       C680 1.402       .   D
C679       H723 1.083       .   S
C680       H724 1.083       .   S
C680       C681 1.406       .   S
C681       N690 1.361       .   D
C681       C695 1.470       .   S
C682       C683 1.414       .   S
C682       N690 1.364       .   S
C683       N689 1.361       .   S
C684       H725 1.083       .   S
C684       C738 1.474       .   S
C684       N693 1.300       .   D
C685       N694 1.300       .   D
C685       C698 1.473       .   S
C685       H726 1.084       .   S
Cu686      N689 1.903       .   S
Cu686      N690 1.922       .   S
Cu686      N688 1.902       .   S
N687      Cu686 1.924       .   S
N691      C1565 1.406       .   S
N692      C1541 1.456   1_556   S
N693      C1560 1.457   1_556   S
N694      C1509 1.605       .   S
C695       C700 1.400       .   D
C696       C695 1.403       .   S
C696       H727 1.084       .   S
C696       C697 1.395       .   D
C697       C698 1.405       .   S
C697       H728 1.083       .   S
C699       C698 1.404       .   D
C699       H729 1.083       .   S
C699       C700 1.397       .   S
C700       H730 1.079       .   S
C701       C706 1.407       .   S
C701       C702 1.403       .   D
C702       C703 1.397       .   S
C702       H731 1.083       .   S
C703       C704 1.404       .   D
C703       H732 1.083       .   S
C704       C705 1.400       .   S
C705       H733 1.077       .   S
C705       C706 1.397       .   D
C706       H734 1.083       .   S
C735       C736 1.398       .   S
C740       C735 1.474       .   D
C736       C737 1.402       .   D
C736       H741 1.083       .   S
C737       H742 1.083       .   S
C738       C737 1.410       .   S
C738       C739 1.402       .   D
C739       H743 1.084       .   S
C739       C740 1.389       .   S
C740       H744 1.083       .   S
C745       C746 1.408       .   S
C745       N780 1.361       .   D
C745       C797 1.475       .   S
C746       C747 1.401       .   D
C746       H800 1.083       .   S
C747       C748 1.400       .   S
C747       H801 1.083       .   S
C749       C748 1.407       .   D
C756       C748 1.404       .   S
C749       C750 1.406       .   S
H802       C749 1.083       .   S
C750       C751 1.405       .   D
C750       H803 1.083       .   S
C751       C752 1.406       .   S
C751       C755 1.404       .   S
C752       H804 1.083       .   S
C752       C753 1.406       .   D
C753       C754 1.403       .   S
C753       H805 1.083       .   S
C754       N781 1.355       .   D
C754       C758 1.462       .   S
C755       C756 1.413       .   D
C755       N781 1.357       .   S
N780       C756 1.367       .   S
C757       H806 1.083       .   S
C757       C794 1.476       .   S
N784       C757 1.299       .   D
C758       C759 1.399       .   D
C758       C763 1.400       .   S
C759       C760 1.396       .   S
C759       H807 1.083       .   S
C760       C761 1.404       .   D
C760       H808 1.083       .   S
C761       C764 1.473       .   S
C761       C762 1.406       .   S
C762       C763 1.397       .   D
C762       H809 1.083       .   S
C763       H810 1.083       .   S
C764       H811 1.082       .   S
C764       N785 1.300       .   D
C765       C828 1.467       .   S
C765       N782 1.357       .   D
C765       C766 1.405       .   S
C766       C767 1.403       .   D
C766       H812 1.083       .   S
C767       H813 1.083       .   S
C767       C768 1.403       .   S
C768       C776 1.404       .   D
C769       C768 1.405       .   S
C769       C770 1.404       .   D
C769       H814 1.083       .   S
C770       H815 1.083       .   S
C771       C770 1.406       .   S
C771       C772 1.401       .   S
C771       C775 1.405       .   D
C772       C773 1.402       .   D
C772       H816 1.083       .   S
C773       H817 1.083       .   S
C773       C774 1.406       .   S
C774       N783 1.361       .   D
C774       C788 1.470       .   S
C775       C776 1.414       .   S
C775       N783 1.364       .   S
C776       N782 1.361       .   S
C777       H818 1.083       .   S
C777       C831 1.474       .   S
C777       N786 1.300       .   D
C778       N787 1.300       .   D
C778       C791 1.473       .   S
C778       H819 1.084       .   S
Cu779      N782 1.903       .   S
Cu779      N783 1.922       .   S
Cu779      N781 1.902       .   S
N780      Cu779 1.924       .   S
N784      C1504 1.405       .   S
N785      C1580 1.605       .   S
N786      C1569 1.458       .   S
N787      C1576 1.609       .   S
C788       C793 1.400       .   D
C789       C788 1.403       .   S
C789       H820 1.084       .   S
C789       C790 1.395       .   D
C790       C791 1.405       .   S
C790       H821 1.083       .   S
C792       C791 1.404       .   D
C792       H822 1.083       .   S
C792       C793 1.397       .   S
C793       H823 1.079       .   S
C794       C799 1.407       .   S
C794       C795 1.403       .   D
C795       C796 1.397       .   S
C795       H824 1.083       .   S
C796       C797 1.404       .   D
C796       H825 1.083       .   S
C797       C798 1.400       .   S
C798       H826 1.077       .   S
C798       C799 1.397       .   D
C799       H827 1.083       .   S
C828       C829 1.398       .   S
C833       C828 1.474       .   D
C829       C830 1.402       .   D
C829       H834 1.083       .   S
C830       H835 1.083       .   S
C831       C830 1.410       .   S
C831       C832 1.402       .   D
C832       H836 1.084       .   S
C832       C833 1.389       .   S
C833       H837 1.083       .   S
C838       C839 1.408       .   S
C838       N873 1.361       .   D
C838       C890 1.475       .   S
C839       C840 1.401       .   D
C839       H893 1.083       .   S
C840       C841 1.400       .   S
C840       H894 1.083       .   S
C842       C841 1.407       .   D
C849       C841 1.404       .   S
C842       C843 1.406       .   S
H895       C842 1.083       .   S
C843       C844 1.405       .   D
C843       H896 1.083       .   S
C844       C845 1.406       .   S
C844       C848 1.404       .   S
C845       H897 1.083       .   S
C845       C846 1.406       .   D
C846       C847 1.403       .   S
C846       H898 1.083       .   S
C847       N874 1.355       .   D
C847       C851 1.462       .   S
C848       C849 1.413       .   D
C848       N874 1.357       .   S
N873       C849 1.367       .   S
C850       H899 1.083       .   S
C850       C887 1.476       .   S
N877       C850 1.299       .   D
C851       C852 1.399       .   D
C851       C856 1.400       .   S
C852       C853 1.396       .   S
C852       H900 1.083       .   S
C853       C854 1.404       .   D
C853       H901 1.083       .   S
C854       C857 1.473       .   S
C854       C855 1.406       .   S
C855       C856 1.397       .   D
C855       H902 1.083       .   S
C856       H903 1.083       .   S
C857       H904 1.082       .   S
C857       N878 1.300       .   D
C858       C921 1.467       .   S
C858       N875 1.357       .   D
C858       C859 1.405       .   S
C859       C860 1.403       .   D
C859       H905 1.083       .   S
C860       H906 1.083       .   S
C860       C861 1.403       .   S
C861       C869 1.404       .   D
C862       C861 1.405       .   S
C862       C863 1.404       .   D
C862       H907 1.083       .   S
C863       H908 1.083       .   S
C864       C863 1.406       .   S
C864       C865 1.401       .   S
C864       C868 1.405       .   D
C865       C866 1.402       .   D
C865       H909 1.083       .   S
C866       H910 1.083       .   S
C866       C867 1.406       .   S
C867       N876 1.361       .   D
C867       C881 1.470       .   S
C868       C869 1.414       .   S
C868       N876 1.364       .   S
C869       N875 1.361       .   S
C870       H911 1.083       .   S
C870       C924 1.474       .   S
C870       N879 1.300       .   D
C871       N880 1.300       .   D
C871       C884 1.473       .   S
C871       H912 1.084       .   S
Cu872      N875 1.903       .   S
Cu872      N876 1.922       .   S
Cu872      N874 1.902       .   S
N873      Cu872 1.924       .   S
N877      C1513 1.406   1_655   S
N878      C1581 1.456       .   S
N879      C1572 1.458       .   S
N880      C1585 1.605       .   S
C881       C886 1.400       .   D
C882       C881 1.403       .   S
C882       H913 1.084       .   S
C882       C883 1.395       .   D
C883       C884 1.405       .   S
C883       H914 1.083       .   S
C885       C884 1.404       .   D
C885       H915 1.083       .   S
C885       C886 1.397       .   S
C886       H916 1.079       .   S
C887       C892 1.407       .   S
C887       C888 1.403       .   D
C888       C889 1.397       .   S
C888       H917 1.083       .   S
C889       C890 1.404       .   D
C889       H918 1.083       .   S
C890       C891 1.400       .   S
C891       H919 1.077       .   S
C891       C892 1.397       .   D
C892       H920 1.083       .   S
C921       C922 1.398       .   S
C926       C921 1.474       .   D
C922       C923 1.402       .   D
C922       H927 1.083       .   S
C923       H928 1.083       .   S
C924       C923 1.410       .   S
C924       C925 1.402       .   D
C925       H929 1.084       .   S
C925       C926 1.389       .   S
C926       H930 1.083       .   S
C931       C932 1.408       .   S
C931       N966 1.361       .   D
C931       C983 1.475       .   S
C932       C933 1.401       .   D
C932       H986 1.083       .   S
C933       C934 1.400       .   S
C933       H987 1.083       .   S
C935       C934 1.407       .   D
C942       C934 1.404       .   S
C935       C936 1.406       .   S
H988       C935 1.083       .   S
C936       C937 1.405       .   D
C936       H989 1.083       .   S
C937       C938 1.406       .   S
C937       C941 1.404       .   S
C938       H990 1.083       .   S
C938       C939 1.406       .   D
C939       C940 1.403       .   S
C939       H991 1.083       .   S
C940       N967 1.355       .   D
C940       C944 1.462       .   S
C941       C942 1.413       .   D
C941       N967 1.357       .   S
N966       C942 1.367       .   S
C943       H992 1.083       .   S
C943       C980 1.476       .   S
N970       C943 1.299       .   D
C944       C945 1.399       .   D
C944       C949 1.400       .   S
C945       C946 1.396       .   S
C945       H993 1.083       .   S
C946       C947 1.404       .   D
C946       H994 1.083       .   S
C947       C950 1.473       .   S
C947       C948 1.406       .   S
C948       C949 1.397       .   D
C948       H995 1.083       .   S
C949       H996 1.083       .   S
C950       H997 1.082       .   S
C950       N971 1.300       .   D
C951      C1014 1.467       .   S
C951       N968 1.357       .   D
C951       C952 1.405       .   S
C952       C953 1.403       .   D
C952       H998 1.083       .   S
C953       H999 1.083       .   S
C953       C954 1.403       .   S
C954       C962 1.404       .   D
C955       C954 1.405       .   S
C955       C956 1.404       .   D
C955      H1000 1.083       .   S
C956      H1001 1.083       .   S
C957       C956 1.406       .   S
C957       C958 1.401       .   S
C957       C961 1.405       .   D
C958       C959 1.402       .   D
C958      H1002 1.083       .   S
C959      H1003 1.083       .   S
C959       C960 1.406       .   S
C960       N969 1.361       .   D
C960       C974 1.470       .   S
C961       C962 1.414       .   S
C961       N969 1.364       .   S
C962       N968 1.361       .   S
C963      H1004 1.083       .   S
C963      C1017 1.474       .   S
C963       N972 1.300       .   D
C964       N973 1.300       .   D
C964       C977 1.473       .   S
C964      H1005 1.084       .   S
Cu965      N968 1.903       .   S
Cu965      N969 1.922       .   S
Cu965      N967 1.902       .   S
N966      Cu965 1.924       .   S
N970      C1528 1.406   1_655   S
N971      C1584 1.456       .   S
N972      C1592 1.457       .   S
N973      C1593 1.606       .   S
C974       C979 1.400       .   D
C975       C974 1.403       .   S
C975      H1006 1.084       .   S
C975       C976 1.395       .   D
C976       C977 1.405       .   S
C976      H1007 1.083       .   S
C978       C977 1.404       .   D
C978      H1008 1.083       .   S
C978       C979 1.397       .   S
C979      H1009 1.079       .   S
C980       C985 1.407       .   S
C980       C981 1.403       .   D
C981       C982 1.397       .   S
C981      H1010 1.083       .   S
C982       C983 1.404       .   D
C982      H1011 1.083       .   S
C983       C984 1.400       .   S
C984      H1012 1.077       .   S
C984       C985 1.397       .   D
C985      H1013 1.083       .   S
C1014     C1015 1.398       .   S
C1019     C1014 1.474       .   D
C1015     C1016 1.402       .   D
C1015     H1020 1.083       .   S
C1016     H1021 1.083       .   S
C1017     C1016 1.410       .   S
C1017     C1018 1.402       .   D
C1018     H1022 1.084       .   S
C1018     C1019 1.389       .   S
C1019     H1023 1.083       .   S
C1024     C1025 1.408       .   S
C1024     N1059 1.361       .   D
C1024     C1076 1.475       .   S
C1025     C1026 1.401       .   D
C1025     H1079 1.083       .   S
C1026     C1027 1.400       .   S
C1026     H1080 1.083       .   S
C1028     C1027 1.407       .   D
C1035     C1027 1.404       .   S
C1028     C1029 1.406       .   S
H1081     C1028 1.083       .   S
C1029     C1030 1.405       .   D
C1029     H1082 1.083       .   S
C1030     C1031 1.406       .   S
C1030     C1034 1.404       .   S
C1031     H1083 1.083       .   S
C1031     C1032 1.406       .   D
C1032     C1033 1.403       .   S
C1032     H1084 1.083       .   S
C1033     N1060 1.355       .   D
C1033     C1037 1.462       .   S
C1034     C1035 1.413       .   D
C1034     N1060 1.357       .   S
N1059     C1035 1.367       .   S
C1036     H1085 1.083       .   S
C1036     C1073 1.476       .   S
N1063     C1036 1.299       .   D
C1037     C1038 1.399       .   D
C1037     C1042 1.400       .   S
C1038     C1039 1.396       .   S
C1038     H1086 1.083       .   S
C1039     C1040 1.404       .   D
C1039     H1087 1.083       .   S
C1040     C1043 1.473       .   S
C1040     C1041 1.406       .   S
C1041     C1042 1.397       .   D
C1041     H1088 1.083       .   S
C1042     H1089 1.083       .   S
C1043     H1090 1.082       .   S
C1043     N1064 1.300       .   D
C1044     C1107 1.467       .   S
C1044     N1061 1.357       .   D
C1044     C1045 1.405       .   S
C1045     C1046 1.403       .   D
C1045     H1091 1.083       .   S
C1046     H1092 1.083       .   S
C1046     C1047 1.403       .   S
C1047     C1055 1.404       .   D
C1048     C1047 1.405       .   S
C1048     C1049 1.404       .   D
C1048     H1093 1.083       .   S
C1049     H1094 1.083       .   S
C1050     C1049 1.406       .   S
C1050     C1051 1.401       .   S
C1050     C1054 1.405       .   D
C1051     C1052 1.402       .   D
C1051     H1095 1.083       .   S
C1052     H1096 1.083       .   S
C1052     C1053 1.406       .   S
C1053     N1062 1.361       .   D
C1053     C1067 1.470       .   S
C1054     C1055 1.414       .   S
C1054     N1062 1.364       .   S
C1055     N1061 1.361       .   S
C1056     H1097 1.083       .   S
C1056     C1110 1.474       .   S
C1056     N1065 1.300       .   D
C1057     N1066 1.300       .   D
C1057     C1070 1.473       .   S
C1057     H1098 1.084       .   S
Cu1058    N1061 1.903       .   S
Cu1058    N1062 1.922       .   S
Cu1058    N1060 1.902       .   S
N1059    Cu1058 1.924       .   S
N1063     C1536 1.406       .   S
N1064     C1597 1.605       .   S
N1065     C1589 1.457       .   S
N1066     C1573 1.609   1_545   S
C1067     C1072 1.400       .   D
C1068     C1067 1.403       .   S
C1068     H1099 1.084       .   S
C1068     C1069 1.395       .   D
C1069     C1070 1.405       .   S
C1069     H1100 1.083       .   S
C1071     C1070 1.404       .   D
C1071     H1101 1.083       .   S
C1071     C1072 1.397       .   S
C1072     H1102 1.079       .   S
C1073     C1078 1.407       .   S
C1073     C1074 1.403       .   D
C1074     C1075 1.397       .   S
C1074     H1103 1.083       .   S
C1075     C1076 1.404       .   D
C1075     H1104 1.083       .   S
C1076     C1077 1.400       .   S
C1077     H1105 1.077       .   S
C1077     C1078 1.397       .   D
C1078     H1106 1.083       .   S
C1107     C1108 1.398       .   S
C1112     C1107 1.474       .   D
C1108     C1109 1.402       .   D
C1108     H1113 1.083       .   S
C1109     H1114 1.083       .   S
C1110     C1109 1.410       .   S
C1110     C1111 1.402       .   D
C1111     H1115 1.084       .   S
C1111     C1112 1.389       .   S
C1112     H1116 1.083       .   S
C1117     C1118 1.408       .   S
C1117     N1152 1.361       .   D
C1117     C1169 1.475       .   S
C1118     C1119 1.401       .   D
C1118     H1172 1.083       .   S
C1119     C1120 1.400       .   S
C1119     H1173 1.083       .   S
C1121     C1120 1.407       .   D
C1128     C1120 1.404       .   S
C1121     C1122 1.406       .   S
H1174     C1121 1.083       .   S
C1122     C1123 1.405       .   D
C1122     H1175 1.083       .   S
C1123     C1124 1.406       .   S
C1123     C1127 1.404       .   S
C1124     H1176 1.083       .   S
C1124     C1125 1.406       .   D
C1125     C1126 1.403       .   S
C1125     H1177 1.083       .   S
C1126     N1153 1.355       .   D
C1126     C1130 1.462       .   S
C1127     C1128 1.413       .   D
C1127     N1153 1.357       .   S
N1152     C1128 1.367       .   S
C1129     H1178 1.083       .   S
C1129     C1166 1.476       .   S
N1156     C1129 1.299       .   D
C1130     C1131 1.399       .   D
C1130     C1135 1.400       .   S
C1131     C1132 1.396       .   S
C1131     H1179 1.083       .   S
C1132     C1133 1.404       .   D
C1132     H1180 1.083       .   S
C1133     C1136 1.473       .   S
C1133     C1134 1.406       .   S
C1134     C1135 1.397       .   D
C1134     H1181 1.083       .   S
C1135     H1182 1.083       .   S
C1136     H1183 1.082       .   S
C1136     N1157 1.300       .   D
C1137     C1200 1.467       .   S
C1137     N1154 1.357       .   D
C1137     C1138 1.405       .   S
C1138     C1139 1.403       .   D
C1138     H1184 1.083       .   S
C1139     H1185 1.083       .   S
C1139     C1140 1.403       .   S
C1140     C1148 1.404       .   D
C1141     C1140 1.405       .   S
C1141     C1142 1.404       .   D
C1141     H1186 1.083       .   S
C1142     H1187 1.083       .   S
C1143     C1142 1.406       .   S
C1143     C1144 1.401       .   S
C1143     C1147 1.405       .   D
C1144     C1145 1.402       .   D
C1144     H1188 1.083       .   S
C1145     H1189 1.083       .   S
C1145     C1146 1.406       .   S
C1146     N1155 1.361       .   D
C1146     C1160 1.470       .   S
C1147     C1148 1.414       .   S
C1147     N1155 1.364       .   S
C1148     N1154 1.361       .   S
C1149     H1190 1.083       .   S
C1149     C1203 1.474       .   S
C1149     N1158 1.300       .   D
C1150     N1159 1.300       .   D
C1150     C1163 1.473       .   S
C1150     H1191 1.084       .   S
Cu1151    N1154 1.903       .   S
Cu1151    N1155 1.922       .   S
Cu1151    N1153 1.902       .   S
N1152    Cu1151 1.924       .   S
N1156     C1545 1.405   1_655   S
N1157     C1596 1.606       .   S
N1158     C1601 1.458       .   S
N1159     C1608 1.609       .   S
C1160     C1165 1.400       .   D
C1161     C1160 1.403       .   S
C1161     H1192 1.084       .   S
C1161     C1162 1.395       .   D
C1162     C1163 1.405       .   S
C1162     H1193 1.083       .   S
C1164     C1163 1.404       .   D
C1164     H1194 1.083       .   S
C1164     C1165 1.397       .   S
C1165     H1195 1.079       .   S
C1166     C1171 1.407       .   S
C1166     C1167 1.403       .   D
C1167     C1168 1.397       .   S
C1167     H1196 1.083       .   S
C1168     C1169 1.404       .   D
C1168     H1197 1.083       .   S
C1169     C1170 1.400       .   S
C1170     H1198 1.077       .   S
C1170     C1171 1.397       .   D
C1171     H1199 1.083       .   S
C1200     C1201 1.398       .   S
C1205     C1200 1.474       .   D
C1201     C1202 1.402       .   D
C1201     H1206 1.083       .   S
C1202     H1207 1.083       .   S
C1203     C1202 1.410       .   S
C1203     C1204 1.402       .   D
C1204     H1208 1.084       .   S
C1204     C1205 1.389       .   S
C1205     H1209 1.083       .   S
C1210     C1211 1.408       .   S
C1210     N1245 1.361       .   D
C1210     C1262 1.475       .   S
C1211     C1212 1.401       .   D
C1211     H1265 1.083       .   S
C1212     C1213 1.400       .   S
C1212     H1266 1.083       .   S
C1214     C1213 1.407       .   D
C1221     C1213 1.404       .   S
C1214     C1215 1.406       .   S
H1267     C1214 1.083       .   S
C1215     C1216 1.405       .   D
C1215     H1268 1.083       .   S
C1216     C1217 1.406       .   S
C1216     C1220 1.404       .   S
C1217     H1269 1.083       .   S
C1217     C1218 1.406       .   D
C1218     C1219 1.403       .   S
C1218     H1270 1.083       .   S
C1219     N1246 1.355       .   D
C1219     C1223 1.462       .   S
C1220     C1221 1.413       .   D
C1220     N1246 1.357       .   S
N1245     C1221 1.367       .   S
C1222     H1271 1.083       .   S
C1222     C1259 1.476       .   S
N1249     C1222 1.299       .   D
C1223     C1224 1.399       .   D
C1223     C1228 1.400       .   S
C1224     C1225 1.396       .   S
C1224     H1272 1.083       .   S
C1225     C1226 1.404       .   D
C1225     H1273 1.083       .   S
C1226     C1229 1.473       .   S
C1226     C1227 1.406       .   S
C1227     C1228 1.397       .   D
C1227     H1274 1.083       .   S
C1228     H1275 1.083       .   S
C1229     H1276 1.082       .   S
C1229     N1250 1.300       .   D
C1230     C1293 1.467       .   S
C1230     N1247 1.357       .   D
C1230     C1231 1.405       .   S
C1231     C1232 1.403       .   D
C1231     H1277 1.083       .   S
C1232     H1278 1.083       .   S
C1232     C1233 1.403       .   S
C1233     C1241 1.404       .   D
C1234     C1233 1.405       .   S
C1234     C1235 1.404       .   D
C1234     H1279 1.083       .   S
C1235     H1280 1.083       .   S
C1236     C1235 1.406       .   S
C1236     C1237 1.401       .   S
C1236     C1240 1.405       .   D
C1237     C1238 1.402       .   D
C1237     H1281 1.083       .   S
C1238     H1282 1.083       .   S
C1238     C1239 1.406       .   S
C1239     N1248 1.361       .   D
C1239     C1253 1.470       .   S
C1240     C1241 1.414       .   S
C1240     N1248 1.364       .   S
C1241     N1247 1.361       .   S
C1242     H1283 1.083       .   S
C1242     C1296 1.474       .   S
C1242     N1251 1.300       .   D
C1243     N1252 1.300       .   D
C1243     C1256 1.473       .   S
C1243     H1284 1.084       .   S
Cu1244    N1247 1.903       .   S
Cu1244    N1248 1.922       .   S
Cu1244    N1246 1.902       .   S
N1245    Cu1244 1.924       .   S
N1249     C1556 1.405       .   S
N1250     C1609 1.456       .   S
N1251     C1604 1.458   1_556   S
N1252     C1600 1.605       .   S
C1253     C1258 1.400       .   D
C1254     C1253 1.403       .   S
C1254     H1285 1.084       .   S
C1254     C1255 1.395       .   D
C1255     C1256 1.405       .   S
C1255     H1286 1.083       .   S
C1257     C1256 1.404       .   D
C1257     H1287 1.083       .   S
C1257     C1258 1.397       .   S
C1258     H1288 1.079       .   S
C1259     C1264 1.407       .   S
C1259     C1260 1.403       .   D
C1260     C1261 1.397       .   S
C1260     H1289 1.083       .   S
C1261     C1262 1.404       .   D
C1261     H1290 1.083       .   S
C1262     C1263 1.400       .   S
C1263     H1291 1.077       .   S
C1263     C1264 1.397       .   D
C1264     H1292 1.083       .   S
C1293     C1294 1.398       .   S
C1298     C1293 1.474       .   D
C1294     C1295 1.402       .   D
C1294     H1299 1.083       .   S
C1295     H1300 1.083       .   S
C1296     C1295 1.410       .   S
C1296     C1297 1.402       .   D
C1297     H1301 1.084       .   S
C1297     C1298 1.389       .   S
C1298     H1302 1.083       .   S
C1303     C1304 1.408       .   S
C1303     N1338 1.361       .   D
C1303     C1355 1.475       .   S
C1304     C1305 1.401       .   D
C1304     H1358 1.083       .   S
C1305     C1306 1.400       .   S
C1305     H1359 1.083       .   S
C1307     C1306 1.407       .   D
C1314     C1306 1.404       .   S
C1307     C1308 1.406       .   S
H1360     C1307 1.083       .   S
C1308     C1309 1.405       .   D
C1308     H1361 1.083       .   S
C1309     C1310 1.406       .   S
C1309     C1313 1.404       .   S
C1310     H1362 1.083       .   S
C1310     C1311 1.406       .   D
C1311     C1312 1.403       .   S
C1311     H1363 1.083       .   S
C1312     N1339 1.355       .   D
C1312     C1316 1.462       .   S
C1313     C1314 1.413       .   D
C1313     N1339 1.357       .   S
N1338     C1314 1.367       .   S
C1315     H1364 1.083       .   S
C1315     C1352 1.476       .   S
N1342     C1315 1.299       .   D
C1316     C1317 1.399       .   D
C1316     C1321 1.400       .   S
C1317     C1318 1.396       .   S
C1317     H1365 1.083       .   S
C1318     C1319 1.404       .   D
C1318     H1366 1.083       .   S
C1319     C1322 1.473       .   S
C1319     C1320 1.406       .   S
C1320     C1321 1.397       .   D
C1320     H1367 1.083       .   S
C1321     H1368 1.083       .   S
C1322     H1369 1.082       .   S
C1322     N1343 1.300       .   D
C1323     C1386 1.467       .   S
C1323     N1340 1.357       .   D
C1323     C1324 1.405       .   S
C1324     C1325 1.403       .   D
C1324     H1370 1.083       .   S
C1325     H1371 1.083       .   S
C1325     C1326 1.403       .   S
C1326     C1334 1.404       .   D
C1327     C1326 1.405       .   S
C1327     C1328 1.404       .   D
C1327     H1372 1.083       .   S
C1328     H1373 1.083       .   S
C1329     C1328 1.406       .   S
C1329     C1330 1.401       .   S
C1329     C1333 1.405       .   D
C1330     C1331 1.402       .   D
C1330     H1374 1.083       .   S
C1331     H1375 1.083       .   S
C1331     C1332 1.406       .   S
C1332     N1341 1.361       .   D
C1332     C1346 1.470       .   S
C1333     C1334 1.414       .   S
C1333     N1341 1.364       .   S
C1334     N1340 1.361       .   S
C1335     H1376 1.083       .   S
C1335     C1389 1.474       .   S
C1335     N1344 1.300       .   D
C1336     N1345 1.300       .   D
C1336     C1349 1.473       .   S
C1336     H1377 1.084       .   S
Cu1337    N1340 1.903       .   S
Cu1337    N1341 1.922       .   S
Cu1337    N1339 1.902       .   S
N1338    Cu1337 1.924       .   S
N1342     C1564 1.405       .   S
N1343     C1612 1.456   1_564   S
N1344     C1613 1.457       .   S
N1345     C1577 1.605       .   S
C1346     C1351 1.400       .   D
C1347     C1346 1.403       .   S
C1347     H1378 1.084       .   S
C1347     C1348 1.395       .   D
C1348     C1349 1.405       .   S
C1348     H1379 1.083       .   S
C1350     C1349 1.404       .   D
C1350     H1380 1.083       .   S
C1350     C1351 1.397       .   S
C1351     H1381 1.079       .   S
C1352     C1357 1.407       .   S
C1352     C1353 1.403       .   D
C1353     C1354 1.397       .   S
C1353     H1382 1.083       .   S
C1354     C1355 1.404       .   D
C1354     H1383 1.083       .   S
C1355     C1356 1.400       .   S
C1356     H1384 1.077       .   S
C1356     C1357 1.397       .   D
C1357     H1385 1.083       .   S
C1386     C1387 1.398       .   S
C1391     C1386 1.474       .   D
C1387     C1388 1.402       .   D
C1387     H1392 1.083       .   S
C1388     H1393 1.083       .   S
C1389     C1388 1.410       .   S
C1389     C1390 1.402       .   D
C1390     H1394 1.084       .   S
C1390     C1391 1.389       .   S
C1391     H1395 1.083       .   S
C1396     C1397 1.408       .   S
C1396     N1431 1.361       .   D
C1396     C1448 1.475       .   S
C1397     C1398 1.401       .   D
C1397     H1451 1.083       .   S
C1398     C1399 1.400       .   S
C1398     H1452 1.083       .   S
C1400     C1399 1.407       .   D
C1407     C1399 1.404       .   S
C1400     C1401 1.406       .   S
H1453     C1400 1.083       .   S
C1401     C1402 1.405       .   D
C1401     H1454 1.083       .   S
C1402     C1403 1.406       .   S
C1402     C1406 1.404       .   S
C1403     H1455 1.083       .   S
C1403     C1404 1.406       .   D
C1404     C1405 1.403       .   S
C1404     H1456 1.083       .   S
C1405     N1432 1.355       .   D
C1405     C1409 1.462       .   S
C1406     C1407 1.413       .   D
C1406     N1432 1.357       .   S
N1431     C1407 1.367       .   S
C1408     H1457 1.083       .   S
C1408     C1445 1.476       .   S
N1435     C1408 1.299       .   D
C1409     C1410 1.399       .   D
C1409     C1414 1.400       .   S
C1410     C1411 1.396       .   S
C1410     H1458 1.083       .   S
C1411     C1412 1.404       .   D
C1411     H1459 1.083       .   S
C1412     C1415 1.473       .   S
C1412     C1413 1.406       .   S
C1413     C1414 1.397       .   D
C1413     H1460 1.083       .   S
C1414     H1461 1.083       .   S
C1415     H1462 1.082       .   S
C1415     N1436 1.300       .   D
C1416     C1479 1.467       .   S
C1416     N1433 1.357       .   D
C1416     C1417 1.405       .   S
C1417     C1418 1.403       .   D
C1417     H1463 1.083       .   S
C1418     H1464 1.083       .   S
C1418     C1419 1.403       .   S
C1419     C1427 1.404       .   D
C1420     C1419 1.405       .   S
C1420     C1421 1.404       .   D
C1420     H1465 1.083       .   S
C1421     H1466 1.083       .   S
C1422     C1421 1.406       .   S
C1422     C1423 1.401       .   S
C1422     C1426 1.405       .   D
C1423     C1424 1.402       .   D
C1423     H1467 1.083       .   S
C1424     H1468 1.083       .   S
C1424     C1425 1.406       .   S
C1425     N1434 1.361       .   D
C1425     C1439 1.470       .   S
C1426     C1427 1.414       .   S
C1426     N1434 1.364       .   S
C1427     N1433 1.361       .   S
C1428     H1469 1.083       .   S
C1428     C1482 1.474       .   S
C1428     N1437 1.300       .   D
C1429     N1438 1.300       .   D
C1429     C1442 1.473       .   S
C1429     H1470 1.084       .   S
Cu1430    N1433 1.903       .   S
Cu1430    N1434 1.922       .   S
Cu1430    N1432 1.902       .   S
N1431    Cu1430 1.924       .   S
N1435     C1568 1.406   1_655   S
N1436     C1588 1.605       .   S
N1437     C1616 1.457   1_556   S
N1438     C1605 1.609   1_556   S
C1439     C1444 1.400       .   D
C1440     C1439 1.403       .   S
C1440     H1471 1.084       .   S
C1440     C1441 1.395       .   D
C1441     C1442 1.405       .   S
C1441     H1472 1.083       .   S
C1443     C1442 1.404       .   D
C1443     H1473 1.083       .   S
C1443     C1444 1.397       .   S
C1444     H1474 1.079       .   S
C1445     C1450 1.407       .   S
C1445     C1446 1.403       .   D
C1446     C1447 1.397       .   S
C1446     H1475 1.083       .   S
C1447     C1448 1.404       .   D
C1447     H1476 1.083       .   S
C1448     C1449 1.400       .   S
C1449     H1477 1.077       .   S
C1449     C1450 1.397       .   D
C1450     H1478 1.083       .   S
C1479     C1480 1.398       .   S
C1484     C1479 1.474       .   D
C1480     C1481 1.402       .   D
C1480     H1485 1.083       .   S
C1481     H1486 1.083       .   S
C1482     C1481 1.410       .   S
C1482     C1483 1.402       .   D
C1483     H1487 1.084       .   S
C1483     C1484 1.389       .   S
C1484     H1488 1.083       .   S
C1613     C1614 1.202       .   T
C1614     C1615 1.406       .   S
C1615     C1616 1.202       .   T
C1609     C1610 1.202       .   T
C1610     C1611 1.406       .   S
C1611     C1612 1.202       .   T
C1605     C1606 1.202       .   T
C1606     C1607 1.406       .   S
C1607     C1608 1.202       .   T
C1601     C1602 1.202       .   T
C1602     C1603 1.406       .   S
C1603     C1604 1.202       .   T
C1597     C1598 1.202       .   T
C1598     C1599 1.406       .   S
C1599     C1600 1.202       .   T
C1593     C1594 1.202       .   T
C1594     C1595 1.406       .   S
C1595     C1596 1.202       .   T
C1589     C1590 1.202       .   T
C1590     C1591 1.406       .   S
C1591     C1592 1.202       .   T
C1585     C1586 1.202       .   T
C1586     C1587 1.406       .   S
C1587     C1588 1.202       .   T
C1581     C1582 1.202       .   T
C1582     C1583 1.406       .   S
C1583     C1584 1.202       .   T
C1577     C1578 1.202       .   T
C1578     C1579 1.406       .   S
C1579     C1580 1.202       .   T
C1573     C1574 1.202       .   T
C1574     C1575 1.406       .   S
C1575     C1576 1.202       .   T
C1569     C1570 1.202       .   T
C1570     C1571 1.406       .   S
C1571     C1572 1.202       .   T
C1565     C1566 1.202       .   T
C1566     C1567 1.406       .   S
C1567     C1568 1.202       .   T
C1561     C1562 1.202       .   T
C1562     C1563 1.406       .   S
C1563     C1564 1.202       .   T
C1557     C1558 1.202       .   T
C1558     C1559 1.406       .   S
C1559     C1560 1.202       .   T
C1553     C1554 1.202       .   T
C1554     C1555 1.406       .   S
C1555     C1556 1.202       .   T
C1549     C1550 1.202       .   T
C1550     C1551 1.406       .   S
C1551     C1552 1.202       .   T
C1545     C1546 1.202       .   T
C1546     C1547 1.406       .   S
C1547     C1548 1.202       .   T
C1541     C1542 1.202       .   T
C1542     C1543 1.406       .   S
C1543     C1544 1.202       .   T
C1537     C1538 1.202       .   T
C1538     C1539 1.406       .   S
C1539     C1540 1.202       .   T
C1533     C1534 1.202       .   T
C1534     C1535 1.406       .   S
C1535     C1536 1.202       .   T
C1529     C1530 1.202       .   T
C1530     C1531 1.406       .   S
C1531     C1532 1.202       .   T
C1525     C1526 1.202       .   T
C1526     C1527 1.406       .   S
C1527     C1528 1.202       .   T
C1521     C1522 1.202       .   T
C1522     C1523 1.406       .   S
C1523     C1524 1.202       .   T
C1517     C1518 1.202       .   T
C1518     C1519 1.406       .   S
C1519     C1520 1.202       .   T
C1513     C1514 1.202       .   T
C1514     C1515 1.406       .   S
C1515     C1516 1.202       .   T
C1509     C1510 1.202       .   T
C1510     C1511 1.406       .   S
C1511     C1512 1.202       .   T
C1505     C1506 1.202       .   T
C1506     C1507 1.406       .   S
C1507     C1508 1.202       .   T
C1501     C1502 1.202       .   T
C1502     C1503 1.406       .   S
C1503     C1504 1.202       .   T
C1497     C1498 1.202       .   T
C1498     C1499 1.406       .   S
C1499     C1500 1.202       .   T
C1493     C1494 1.202       .   T
C1494     C1495 1.406       .   S
C1495     C1496 1.202       .   T
C1489     C1490 1.202       .   T
C1490     C1491 1.406       .   S
C1491     C1492 1.202       .   T
