data_pcl_v1-on15-3D_1-oe33
_audit_creation_date              2023-10-27
_audit_creation_method            'tobacco_3.0'
_symmetry_space_group_name_H-M    'P1'
_symmetry_Int_Tables_number       1
_symmetry_cell_setting            triclinic
loop_
_symmetry_equiv_pos_as_xyz
  x,y,z
_cell_length_a                    62.25454076882218
_cell_length_b                    67.16573543482747
_cell_length_c                    60.170036205004884
_cell_angle_alpha                 90.00000455882312
_cell_angle_beta                  89.99986865269729
_cell_angle_gamma                 89.9998771121656
loop_
_atom_site_label
_atom_site_type_symbol
_atom_site_fract_x
_atom_site_fract_y
_atom_site_fract_z
_atom_site_charge
C1         C    0.3375200974    0.8246155482    0.4257332417         -0.0056
C2         C    0.3305401932    0.8071339199    0.4150143861         -0.0056
C3         C    0.3087598351    0.8045735281    0.4099127838         -0.0056
C4         C    0.2938533293    0.8192982174    0.4157059261         -0.0056
C5         C    0.2717580277    0.8171890561    0.4113841440         -0.0056
C6         C    0.2571955641    0.8320647454    0.4179566679         -0.0056
C7         C    0.2645317977    0.8491184655    0.4291409211         -0.0056
C8         C    0.2505762758    0.8642782162    0.4362890375         -0.0056
C9         C    0.2587396596    0.8809143087    0.4476731657         -0.0056
C10        C    0.2808424267    0.8820960825    0.4520449072         -0.0056
C11        C    0.2865671892    0.8511653004    0.4335224858         -0.0056
C12        C    0.3013370753    0.8364847321    0.4264902670         -0.0056
C13        C    0.4290932099    0.8321279159    0.4344006987         -0.0056
C14        C    0.2903532501    0.8990695570    0.4636404170         -0.0056
C15        C    0.2958549329    0.8973015918    0.4861030559         -0.0056
C16        C    0.3084897259    0.9118588823    0.4962529723         -0.0056
C17        C    0.3160875998    0.9281489074    0.4839282282         -0.0056
C18        C    0.3096703604    0.9303409360    0.4616517253         -0.0056
C19        C    0.2968301417    0.9158679771    0.4515900764         -0.0056
C20        C    0.3328466235    0.9409361259    0.4936677297         -0.0056
C21        C    0.3337570886    0.8493747827    0.4931407318         -0.0056
C22        C    0.3445418840    0.8531615510    0.5132191587         -0.0056
C23        C    0.3569847078    0.8704547969    0.5154655820         -0.0056
C24        C    0.3594767336    0.8833885532    0.4973432085         -0.0056
C25        C    0.3732634148    0.8999314467    0.4981140119         -0.0056
C26        C    0.3765489255    0.9116333162    0.4790777138         -0.0056
C27        C    0.3658694573    0.9070966951    0.4591270074         -0.0056
C28        C    0.3693726052    0.9179437748    0.4395637122         -0.0056
C29        C    0.3591898155    0.9122415737    0.4197853853         -0.0056
C30        C    0.3450881382    0.8958869892    0.4197128699         -0.0056
C31        C    0.3515699960    0.8909251755    0.4584477882         -0.0056
C32        C    0.3483650385    0.8790968790    0.4776035176         -0.0056
C33        C    0.2995325464    0.7715606464    0.4735587082         -0.0056
C34        C    0.3118246010    0.8589859100    0.3407243780         -0.0056
Cu35      Cu    0.3240592976    0.8634842810    0.4470568023             1.0
N36        N    0.3227507018    0.8388479188    0.4308050168         -0.0056
N37        N    0.2938434636    0.8672308864    0.4449238142         -0.0056
N38        N    0.3352671963    0.8629011339    0.4764706854         -0.0056
N39        N    0.3414482207    0.8860233653    0.4390996920         -0.0056
N40        N    0.4391537563    0.8476090043    0.4267055152         -0.0056
N41        N    0.3442387142    0.9525703611    0.4810566681         -0.0056
N42        N    0.2791132922    0.7680461978    0.4713878662         -0.0056
N43        N    0.3246942372    0.8501744367    0.3268499505         -0.0056
C44        C    0.3362868521    0.8881312025    0.3987535408         -0.0056
C45        C    0.3501980280    0.8833546532    0.3811927594         -0.0056
C46        C    0.3423207314    0.8740965546    0.3620980226         -0.0056
C47        C    0.3203317071    0.8696852616    0.3601889964         -0.0056
C48        C    0.3063485377    0.8750744715    0.3774735700         -0.0056
C49        C    0.3143029204    0.8842062640    0.3966408954         -0.0056
C50        C    0.4053938085    0.8314050251    0.4346930955         -0.0056
C51        C    0.3950618768    0.8139645897    0.4417929052         -0.0056
C52        C    0.3727970493    0.8120357718    0.4398048105         -0.0056
C53        C    0.3604960375    0.8275620599    0.4307456148         -0.0056
C54        C    0.3706788900    0.8453211028    0.4246349833         -0.0056
C55        C    0.3929401553    0.8473016192    0.4265966186         -0.0056
H56        H    0.3418907293    0.7956470370    0.4103769338         -0.0056
H57        H    0.3035902428    0.7910972392    0.4015881580         -0.0056
H58        H    0.2657412204    0.8040217522    0.4030542269         -0.0056
H59        H    0.2402488319    0.8301487875    0.4144953316         -0.0056
H60        H    0.2334882698    0.8632750427    0.4331055979         -0.0056
H61        H    0.2479943412    0.8926305665    0.4530745555         -0.0056
H62        H    0.4379576029    0.8192511537    0.4401619027         -0.0056
H63        H    0.2912508642    0.8841869703    0.4954400787         -0.0056
H64        H    0.3134524004    0.9097343197    0.5133477056         -0.0056
H65        H    0.3154226168    0.9426845402    0.4517153328         -0.0056
H66        H    0.2929075299    0.9172415990    0.4341178920         -0.0056
H67        H    0.3377661872    0.9378233784    0.5105561434         -0.0056
H68        H    0.3437876324    0.8425721332    0.5267765297         -0.0056
H69        H    0.3653893896    0.8732035108    0.5309222624         -0.0056
H70        H    0.3818811788    0.9035172473    0.5132343279         -0.0056
H71        H    0.3876799082    0.9239991420    0.4798744103         -0.0056
H72        H    0.3803731301    0.9304332330    0.4394186298         -0.0056
H73        H    0.3625039569    0.9203443342    0.4046086864         -0.0056
H74        H    0.3110632301    0.7595466939    0.4722892317         -0.0056
H75        H    0.2945818212    0.8572735806    0.3391672780         -0.0056
H76        H    0.3672878031    0.8861388912    0.3826100868         -0.0056
H77        H    0.3534588070    0.8701528460    0.3489933625         -0.0056
H78        H    0.2893301887    0.8718647625    0.3763427525         -0.0056
H79        H    0.3033168870    0.8882312743    0.4097727302         -0.0056
H80        H    0.4042993013    0.8015638178    0.4482033115         -0.0056
H81        H    0.3652303597    0.7982272657    0.4448247437         -0.0056
H82        H    0.3615716839    0.8571979739    0.4171512846         -0.0056
H83        H    0.4004257185    0.8609579527    0.4209788746         -0.0056
C84        C    0.3241981716    0.8297918652    0.4888459684         -0.0056
C85        C    0.3027603151    0.8275975354    0.4823818508         -0.0056
C86        C    0.2946015877    0.8086879432    0.4773017904         -0.0056
C87        C    0.3078245722    0.7916720595    0.4782784397         -0.0056
C88        C    0.3294904413    0.7935363274    0.4843054593         -0.0056
C89        C    0.3380096667    0.8119918519    0.4898328290         -0.0056
H90        H    0.2923231656    0.8404629763    0.4813975114         -0.0056
H91        H    0.2779094411    0.8073798618    0.4724531652         -0.0056
H92        H    0.3398313479    0.7805741634    0.4849664704         -0.0056
H93        H    0.3547803223    0.8132346057    0.4943978122         -0.0056
C94        C    0.1522406830    0.6375976507    0.5598777289         -0.0056
C95        C    0.1600230640    0.6366420878    0.5379260077         -0.0056
C96        C    0.1816529889    0.6321407845    0.5339334902         -0.0056
C97        C    0.1956307904    0.6288168781    0.5517848464         -0.0056
C98        C    0.2175788688    0.6247012389    0.5486134948         -0.0056
C99        C    0.2312423131    0.6219507103    0.5669619616         -0.0056
C100       C    0.2231629815    0.6234988020    0.5886927681         -0.0056
C101       C    0.2362291991    0.6211188154    0.6075640115         -0.0056
C102       C    0.2273695223    0.6230799921    0.6289409909         -0.0056
C103       C    0.2054900336    0.6276631509    0.6312196912         -0.0056
C104       C    0.2012825873    0.6276859768    0.5918328780         -0.0056
C105       C    0.1873733992    0.6299982881    0.5734546761         -0.0056
C106       C    0.0608979833    0.6479028121    0.5675100710         -0.0056
C107       C    0.1952726696    0.6297377961    0.6529719099         -0.0056
C108       C    0.1910930021    0.6487508166    0.6614410780         -0.0056
C109       C    0.1778813126    0.6510301292    0.6800056770         -0.0056
C110       C    0.1683886156    0.6343381880    0.6900413793         -0.0056
C111       C    0.1734560820    0.6152080490    0.6821155457         -0.0056
C112       C    0.1868702256    0.6129442597    0.6636837987         -0.0056
C113       C    0.1511887241    0.6374193594    0.7064958689         -0.0056
C114       C    0.1575061743    0.6792686260    0.6158185045         -0.0056
C115       C    0.1475022401    0.6942324912    0.6284430526         -0.0056
C116       C    0.1338571535    0.6889793301    0.6460420933         -0.0056
C117       C    0.1294158185    0.6688592634    0.6502814227         -0.0056
C118       C    0.1144156918    0.6628850299    0.6663976281         -0.0056
C119       C    0.1092345417    0.6426689979    0.6689628022         -0.0056
C120       C    0.1191995610    0.6281597742    0.6556529532         -0.0056
C121       C    0.1138421707    0.6079368847    0.6571201452         -0.0056
C122       C    0.1234137684    0.5941387658    0.6427190299         -0.0056
C123       C    0.1387487156    0.6005552840    0.6271265148         -0.0056
C124       C    0.1346856659    0.6339966902    0.6399673275         -0.0056
C125       C    0.1398027716    0.6543716149    0.6373295108         -0.0056
C126       C    0.1967414292    0.6970471281    0.5313171336         -0.0056
C127       C    0.1707208165    0.5525194515    0.5553563777         -0.0056
Cu128     Cu    0.1636681357    0.6355507158    0.6087258985             1.0
N129       N    0.1660837008    0.6339398827    0.5769019384         -0.0056
N130       N    0.1933524275    0.6298568031    0.6126915679         -0.0056
N131       N    0.1540707259    0.6599511905    0.6213590175         -0.0056
N132       N    0.1441553167    0.6201749038    0.6265538920         -0.0056
N133       N    0.0492557748    0.6354345491    0.5787970354         -0.0056
N134       N    0.1382714204    0.6229325764    0.7116439645         -0.0056
N135       N    0.2172426825    0.6954084003    0.5276886511         -0.0056
N136       N    0.1578860977    0.5465667035    0.5396704101         -0.0056
C137       C    0.1470461992    0.5868727964    0.6100913513         -0.0056
C138       C    0.1326644370    0.5762205852    0.5966315737         -0.0056
C139       C    0.1402569545    0.5647763151    0.5789416810         -0.0056
C140       C    0.1624060366    0.5636398156    0.5746148951         -0.0056
C141       C    0.1767967194    0.5737855716    0.5885541040         -0.0056
C142       C    0.1691411834    0.5853513327    0.6061498389         -0.0056
C143       C    0.0845718868    0.6466802963    0.5679194456         -0.0056
C144       C    0.0966088070    0.6595597488    0.5544325966         -0.0056
C145       C    0.1188318692    0.6571957569    0.5525313729         -0.0056
C146       C    0.1293849273    0.6419405200    0.5641601620         -0.0056
C147       C    0.1175222892    0.6296861069    0.5784276746         -0.0056
C148       C    0.0952973144    0.6320050563    0.5803677844         -0.0056
H149       H    0.1493897732    0.6391205769    0.5239566281         -0.0056
H150       H    0.1874388871    0.6313712743    0.5169738302         -0.0056
H151       H    0.2241837407    0.6237212498    0.5319917093         -0.0056
H152       H    0.2480921833    0.6188154829    0.5641669624         -0.0056
H153       H    0.2531618124    0.6177722669    0.6058052526         -0.0056
H154       H    0.2374213547    0.6211462283    0.6434667982         -0.0056
H155       H    0.0533873152    0.6590668383    0.5571068149         -0.0056
H156       H    0.1971985772    0.6618397377    0.6530265070         -0.0056
H157       H    0.1739896347    0.6659171564    0.6856494952         -0.0056
H158       H    0.1662371881    0.6020865384    0.6894424323         -0.0056
H159       H    0.1897661266    0.5981829261    0.6570797989         -0.0056
H160       H    0.1474075918    0.6525952199    0.7110699659         -0.0056
H161       H    0.1497917138    0.7097891234    0.6243233569         -0.0056
H162       H    0.1260671915    0.7005831509    0.6555921218         -0.0056
H163       H    0.1063298732    0.6738528368    0.6766088109         -0.0056
H164       H    0.0972112962    0.6384400816    0.6810778267         -0.0056
H165       H    0.1018904484    0.6028955598    0.6689247908         -0.0056
H166       H    0.1186883353    0.5786392000    0.6435242495         -0.0056
H167       H    0.1861442961    0.7024484891    0.5183858011         -0.0056
H168       H    0.1879476620    0.5507756090    0.5536600957         -0.0056
H169       H    0.1154978593    0.5773482239    0.5993274901         -0.0056
H170       H    0.1288008643    0.5570590005    0.5684914560         -0.0056
H171       H    0.1939406484    0.5730862314    0.5855683737         -0.0056
H172       H    0.1804408228    0.5930641571    0.6166866312         -0.0056
H173       H    0.0887224555    0.6710464996    0.5447855667         -0.0056
H174       H    0.1277199851    0.6669632822    0.5415479746         -0.0056
H175       H    0.1252650590    0.6176009158    0.5870530417         -0.0056
H176       H    0.0864711889    0.6218282671    0.5909263829         -0.0056
C177       C    0.1683548804    0.6841728601    0.5948865027         -0.0056
C178       C    0.1895444081    0.6784499947    0.5906076300         -0.0056
C179       C    0.1989048511    0.6825277932    0.5699169378         -0.0056
C180       C    0.1871344614    0.6921402318    0.5530212470         -0.0056
C181       C    0.1657214438    0.6976863630    0.5567615436         -0.0056
C182       C    0.1560610371    0.6941991435    0.5771969114         -0.0056
H183       H    0.1988687681    0.6709543587    0.6032861658         -0.0056
H184       H    0.2153814476    0.6780333162    0.5670664596         -0.0056
H185       H    0.1564839028    0.7049633439    0.5438411983         -0.0056
H186       H    0.1394967909    0.6985050933    0.5798477484         -0.0056
C187       C    0.1522348430    0.3596611388    0.4595434532         -0.0056
C188       C    0.1600171616    0.3606160122    0.4814951969         -0.0056
C189       C    0.1816470304    0.3651172896    0.4854878531         -0.0056
C190       C    0.1956248401    0.3684418566    0.4676366038         -0.0056
C191       C    0.2175728683    0.3725574987    0.4708080774         -0.0056
C192       C    0.2312363280    0.3753087030    0.4524596944         -0.0056
C193       C    0.2231570644    0.3737612920    0.4307288417         -0.0056
C194       C    0.2362233024    0.3761419685    0.4118576680         -0.0056
C195       C    0.2273636970    0.3741814570    0.3904806270         -0.0056
C196       C    0.2054842612    0.3695982660    0.3882017851         -0.0056
C197       C    0.2012767210    0.3695741136    0.4275886065         -0.0056
C198       C    0.1873675130    0.3672611245    0.4459667432         -0.0056
C199       C    0.0608922683    0.3493557809    0.4519108849         -0.0056
C200       C    0.1952669708    0.3675242918    0.3664495030         -0.0056
C201       C    0.1910875204    0.3485115315    0.3579795586         -0.0056
C202       C    0.1778758990    0.3462327694    0.3394148943         -0.0056
C203       C    0.1683830530    0.3629249966    0.3293799024         -0.0056
C204       C    0.1734503023    0.3820548978    0.3373065151         -0.0056
C205       C    0.1868643785    0.3843181420    0.3557383264         -0.0056
C206       C    0.1511832328    0.3598442861    0.3129253230         -0.0056
C207       C    0.1575008996    0.3179920442    0.4036009446         -0.0056
C208       C    0.1474971506    0.3030285484    0.3909758002         -0.0056
C209       C    0.1338520517    0.3082822258    0.3733770063         -0.0056
C210       C    0.1294105184    0.3284024111    0.3691385178         -0.0056
C211       C    0.1144103684    0.3343771052    0.3530225920         -0.0056
C212       C    0.1092290151    0.3545931967    0.3504582644         -0.0056
C213       C    0.1191938523    0.3691020282    0.3637686911         -0.0056
C214       C    0.1138362560    0.3893249399    0.3623023462         -0.0056
C215       C    0.1234076763    0.4031226285    0.3767040107         -0.0056
C216       C    0.1387426528    0.3967056687    0.3922962272         -0.0056
C217       C    0.1346799801    0.3632646684    0.3794540417         -0.0056
C218       C    0.1397972905    0.3428896813    0.3820910055         -0.0056
C219       C    0.1967361366    0.3002109336    0.4881014953         -0.0056
C220       C    0.1707140846    0.4447392790    0.4640682789         -0.0056
Cu221     Cu    0.1636623913    0.3617097496    0.4106953432             1.0
N222       N    0.1660778636    0.3633195394    0.4425193646         -0.0056
N223       N    0.1933466336    0.3674039398    0.4067298443         -0.0056
N224       N    0.1540652644    0.3373096465    0.3980612372         -0.0056
N225       N    0.1441494557    0.3770860566    0.3928680276         -0.0056
N226       N    0.0492499577    0.3618243608    0.4406244610         -0.0056
N227       N    0.1382657914    0.3743311762    0.3077778541         -0.0056
N228       N    0.2172373643    0.3018496420    0.4917300007         -0.0056
N229       N    0.1578792666    0.4506914438    0.4797545204         -0.0056
C230       C    0.1470399539    0.4103876324    0.4093319378         -0.0056
C231       C    0.1326580492    0.4210393265    0.4227921869         -0.0056
C232       C    0.1402504059    0.4324830475    0.4404825357         -0.0056
C233       C    0.1623994659    0.4336195125    0.4448093202         -0.0056
C234       C    0.1767902871    0.4234742895    0.4308696608         -0.0056
C235       C    0.1691349130    0.4119090741    0.4132734648         -0.0056
C236       C    0.0845661601    0.3505784269    0.4515015091         -0.0056
C237       C    0.0966031814    0.3376985864    0.4649877997         -0.0056
C238       C    0.1188262147    0.3400626247    0.4668890726         -0.0056
C239       C    0.1293791426    0.3553182990    0.4552608907         -0.0056
C240       C    0.1175164116    0.3675731268    0.4409939102         -0.0056
C241       C    0.0952914655    0.3652541323    0.4390537532         -0.0056
H242       H    0.1493838631    0.3581370076    0.4954644973         -0.0056
H243       H    0.1874328800    0.3658862660    0.5024475322         -0.0056
H244       H    0.2241776903    0.3735369693    0.4874298889         -0.0056
H245       H    0.2480861590    0.3784439206    0.4552547864         -0.0056
H246       H    0.2531558769    0.3794885421    0.4136165282         -0.0056
H247       H    0.2374155442    0.3761157519    0.3759548776         -0.0056
H248       H    0.0533816910    0.3381913728    0.4623136961         -0.0056
H249       H    0.1971932110    0.3354223615    0.3663935754         -0.0056
H250       H    0.1739843887    0.3313459102    0.3337704696         -0.0056
H251       H    0.1662312901    0.3951766158    0.3299801865         -0.0056
H252       H    0.1897601108    0.3990792708    0.3623429297         -0.0056
H253       H    0.1474022687    0.3446685587    0.3083506073         -0.0056
H254       H    0.1497867756    0.2874717909    0.3950948482         -0.0056
H255       H    0.1260622327    0.2966786833    0.3638265154         -0.0056
H256       H    0.1063246878    0.3234095971    0.3428109738         -0.0056
H257       H    0.0972057547    0.3588224555    0.3383434409         -0.0056
H258       H    0.1018845097    0.3943665974    0.3504979351         -0.0056
H259       H    0.1186820847    0.4186221977    0.3758994418         -0.0056
H260       H    0.1861390285    0.2948090917    0.5010326278         -0.0056
H261       H    0.1879409080    0.4464831500    0.4657645953         -0.0056
H262       H    0.1154914896    0.4199116928    0.4200962614         -0.0056
H263       H    0.1287942107    0.4401999593    0.4509331046         -0.0056
H264       H    0.1939342017    0.4241736151    0.4338553826         -0.0056
H265       H    0.1804346574    0.4041966547    0.4027363292         -0.0056
H266       H    0.0887169258    0.3262114770    0.4746343722         -0.0056
H267       H    0.1277144054    0.3302947790    0.4778720479         -0.0056
H268       H    0.1252590768    0.3796586419    0.4323690255         -0.0056
H269       H    0.0864652599    0.3754312282    0.4284955944         -0.0056
C270       C    0.1683496065    0.3130871695    0.4245327201         -0.0056
C271       C    0.1895390647    0.3188099973    0.4288117829         -0.0056
C272       C    0.1988995005    0.3147315589    0.4495022862         -0.0056
C273       C    0.1871291699    0.3051185022    0.4663976056         -0.0056
C274       C    0.1657162187    0.2995723896    0.4626571267         -0.0056
C275       C    0.1560558247    0.3030602391    0.4422219240         -0.0056
H276       H    0.1988633773    0.3263060996    0.4161335365         -0.0056
H277       H    0.2153760436    0.3192260225    0.4523529141         -0.0056
H278       H    0.1564787222    0.2922949349    0.4755771915         -0.0056
H279       H    0.1394916295    0.2987542957    0.4395709453         -0.0056
C280       C    0.3375133271    0.1726246644    0.5936590978         -0.0056
C281       C    0.3305346948    0.1901064147    0.6043786815         -0.0056
C282       C    0.3087549196    0.1926669998    0.6094829839         -0.0056
C283       C    0.2938477060    0.1779423814    0.6036918254         -0.0056
C284       C    0.2717528981    0.1800517332    0.6080163508         -0.0056
C285       C    0.2571896385    0.1651761072    0.6014457688         -0.0056
C286       C    0.2645245497    0.1481222595    0.5902607396         -0.0056
C287       C    0.2505681662    0.1329625638    0.5831144917         -0.0056
C288       C    0.2587302068    0.1163263362    0.5717294806         -0.0056
C289       C    0.2808324782    0.1151443716    0.5673549873         -0.0056
C290       C    0.2865594411    0.1460752342    0.5858764386         -0.0056
C291       C    0.3013301740    0.1607557407    0.5929066911         -0.0056
C292       C    0.4290854365    0.1651115684    0.5849802614         -0.0056
C293       C    0.2903419333    0.0981707508    0.5557584290         -0.0056
C294       C    0.2958411007    0.0999385272    0.5332950884         -0.0056
C295       C    0.3084746972    0.0853810771    0.5231437133         -0.0056
C296       C    0.3160738914    0.0690910777    0.5354676422         -0.0056
C297       C    0.3096591448    0.0668992434    0.5577449647         -0.0056
C298       C    0.2968201124    0.0813723628    0.5678080987         -0.0056
C299       C    0.3328317715    0.0563036720    0.5257261521         -0.0056
C300       C    0.3337426529    0.1478650120    0.5262522822         -0.0056
C301       C    0.3445251790    0.1440780321    0.5061725392         -0.0056
C302       C    0.3569676830    0.1267846802    0.5039247037         -0.0056
C303       C    0.3594616932    0.1138510253    0.5220468722         -0.0056
C304       C    0.3732482232    0.0973080256    0.5212744825         -0.0056
C305       C    0.3765358258    0.0856062579    0.5403104663         -0.0056
C306       C    0.3658586154    0.0901430891    0.5602624695         -0.0056
C307       C    0.3693639177    0.0792961130    0.5798254162         -0.0056
C308       C    0.3591833711    0.0849985195    0.5996049683         -0.0056
C309       C    0.3450817658    0.1013532077    0.5996791109         -0.0056
C310       C    0.3515592936    0.1063147180    0.5609433421         -0.0056
C311       C    0.3483522314    0.1181429114    0.5417879159         -0.0056
C312       C    0.2995206133    0.2256795286    0.5458379410         -0.0056
C313       C    0.3118272420    0.1382550526    0.6786714544         -0.0056
Cu314     Cu    0.3240499815    0.1337558893    0.5723375393             1.0
N315       N    0.3227433067    0.1583923686    0.5885892853         -0.0056
N316       N    0.2938343726    0.1300095195    0.5744743335         -0.0056
N317       N    0.3352545797    0.1343387599    0.5429222512         -0.0056
N318       N    0.3414397100    0.1112167302    0.5802926625         -0.0056
N319       N    0.4391467865    0.1496304571    0.5926743153         -0.0056
N320       N    0.3442252328    0.0446694367    0.5383358860         -0.0056
N321       N    0.2791016167    0.2291941411    0.5480113053         -0.0056
N322       N    0.3246984704    0.1470665233    0.6925442013         -0.0056
C323       C    0.3362828634    0.1091091975    0.6206394757         -0.0056
C324       C    0.3501960297    0.1138857609    0.6381984795         -0.0056
C325       C    0.3423209133    0.1231440433    0.6572941241         -0.0056
C326       C    0.3203321207    0.1275555101    0.6592058613         -0.0056
C327       C    0.3063469896    0.1221662884    0.6419230794         -0.0056
C328       C    0.3142991844    0.1130343110    0.6227548354         -0.0056
C329       C    0.4053860052    0.1658346310    0.5846908197         -0.0056
C330       C    0.3950533444    0.1832750951    0.5775921572         -0.0056
C331       C    0.3727887479    0.1852040893    0.5795830179         -0.0056
C332       C    0.3604886928    0.1696779513    0.5886438783         -0.0056
C333       C    0.3706721620    0.1519188741    0.5947533837         -0.0056
C334       C    0.3929331992    0.1499381815    0.5927889834         -0.0056
H335       H    0.3418857963    0.2015932451    0.6090146210         -0.0056
H336       H    0.3035863147    0.2061433816    0.6178081446         -0.0056
H337       H    0.2657370774    0.1932191363    0.6163469112         -0.0056
H338       H    0.2402433025    0.1670922122    0.6049092067         -0.0056
H339       H    0.2334805216    0.1339658835    0.5863000581         -0.0056
H340       H    0.2479842362    0.1046101215    0.5663295299         -0.0056
H341       H    0.4379492327    0.1779882275    0.5792178438         -0.0056
H342       H    0.2912360349    0.1130531207    0.5239585329         -0.0056
H343       H    0.3134354605    0.0875054903    0.5060483426         -0.0056
H344       H    0.3154124687    0.0545556627    0.5676807401         -0.0056
H345       H    0.2928994572    0.0799988852    0.5852807844         -0.0056
H346       H    0.3377494510    0.0594162718    0.5088370982         -0.0056
H347       H    0.3437694464    0.1546673658    0.4926151753         -0.0056
H348       H    0.3653706185    0.1240358025    0.4884669959         -0.0056
H349       H    0.3818642754    0.0937220620    0.5061531194         -0.0056
H350       H    0.3876666707    0.0732403453    0.5395124809         -0.0056
H351       H    0.3803644100    0.0668065751    0.5799692270         -0.0056
H352       H    0.3624991849    0.0768958350    0.6147813197         -0.0056
H353       H    0.3110514864    0.2376934049    0.5471058779         -0.0056
H354       H    0.2945846439    0.1399675187    0.6802306946         -0.0056
H355       H    0.3672856347    0.1111013883    0.6367790398         -0.0056
H356       H    0.3534604757    0.1270877569    0.6703973600         -0.0056
H357       H    0.2893287802    0.1253761296    0.6430559967         -0.0056
H358       H    0.3033116609    0.1090092944    0.6096244065         -0.0056
H359       H    0.4042900975    0.1956757569    0.5711804947         -0.0056
H360       H    0.3652215485    0.1990126177    0.5745639164         -0.0056
H361       H    0.3615657500    0.1400421191    0.6022383181         -0.0056
H362       H    0.4004193399    0.1362818304    0.5984059046         -0.0056
C363       C    0.3241842946    0.1674480280    0.5305480787         -0.0056
C364       C    0.3027471726    0.1696425576    0.5370148566         -0.0056
C365       C    0.2945890895    0.1885522432    0.5420957807         -0.0056
C366       C    0.3078120307    0.2055680235    0.5411173391         -0.0056
C367       C    0.3294772156    0.2037035570    0.5350876280         -0.0056
C368       C    0.3379957483    0.1852479335    0.5295593459         -0.0056
H369       H    0.2923100835    0.1567771997    0.5380006060         -0.0056
H370       H    0.2778974925    0.1898604789    0.5469464806         -0.0056
H371       H    0.3398180984    0.2166656408    0.5344252181         -0.0056
H372       H    0.3547658863    0.1840050267    0.5249922775         -0.0056
C373       C    0.0947525206    0.3246327924    0.0936822530         -0.0056
C374       C    0.1017325169    0.3071514987    0.1044017777         -0.0056
C375       C    0.1235126369    0.3045919687    0.1095050601         -0.0056
C376       C    0.1384188348    0.3193171879    0.1037129384         -0.0056
C377       C    0.1605139318    0.3172088953    0.1080364212         -0.0056
C378       C    0.1750761355    0.3320850964    0.1014648904         -0.0056
C379       C    0.1677398639    0.3491384653    0.0902799443         -0.0056
C380       C    0.1816951530    0.3642987011    0.0831327725         -0.0056
C381       C    0.1735317658    0.3809344096    0.0717478916         -0.0056
C382       C    0.1514292523    0.3821153141    0.0673744563         -0.0056
C383       C    0.1457046843    0.3511844334    0.0858966840         -0.0056
C384       C    0.1309350158    0.3365033483    0.0929278923         -0.0056
C385       C    0.0031796580    0.3321416194    0.0850077575         -0.0056
C386       C    0.1419184241    0.3990883520    0.0557780884         -0.0056
C387       C    0.1364184272    0.3973200329    0.0333150441         -0.0056
C388       C    0.1237836447    0.4118767771    0.0231640505         -0.0056
C389       C    0.1161840963    0.4281665925    0.0354880876         -0.0056
C390       C    0.1225996424    0.4303590086    0.0577650624         -0.0056
C391       C    0.1354398527    0.4158866032    0.0678278035         -0.0056
C392       C    0.0994251405    0.4409531105    0.0257472085         -0.0056
C393       C    0.0985191175    0.3493917361    0.0262748555         -0.0056
C394       C    0.0877355664    0.3531779647    0.0061955769         -0.0056
C395       C    0.0752920566    0.3704707225    0.0039480696         -0.0056
C396       C    0.0727981077    0.3834045007    0.0220701516         -0.0056
C397       C    0.0590106721    0.3999468646    0.0212981676         -0.0056
C398       C    0.0557232335    0.4116487316    0.0403341234         -0.0056
C399       C    0.0664015032    0.4071126454    0.0602856793         -0.0056
C400       C    0.0628964317    0.4179597176    0.0798486224         -0.0056
C401       C    0.0730780921    0.4122580314    0.0996277701         -0.0056
C402       C    0.0871805643    0.3959039841    0.0997014885         -0.0056
C403       C    0.0807017072    0.3909416743    0.0609661152         -0.0056
C404       C    0.0839086072    0.3791133765    0.0418107231         -0.0056
C405       C    0.1327460723    0.2715790283    0.0458600983         -0.0056
C406       C    0.1204402828    0.3590046793    0.1786928051         -0.0056
Cu407     Cu    0.1082129370    0.3635019001    0.0723594133             1.0
N408       N    0.1095215809    0.3388656923    0.0886114918         -0.0056
N409       N    0.1384284357    0.3672496691    0.0744946750         -0.0056
N410       N    0.0970071611    0.3629181371    0.0429446806         -0.0056
N411       N    0.0908223447    0.3860403739    0.0803150214         -0.0056
N412       N    0.9931178064    0.3476223745    0.0927020527         -0.0056
N413       N    0.0880315827    0.4525869933    0.0383573104         -0.0056
N414       N    0.1531653438    0.2680653708    0.0480325242         -0.0056
N415       N    0.1075700899    0.3501928056    0.1925663209         -0.0056
C416       C    0.0959807375    0.3881486672    0.1206615493         -0.0056
C417       C    0.0820685450    0.3833717016    0.1382213078         -0.0056
C418       C    0.0899449351    0.3741140257    0.1573167176         -0.0056
C419       C    0.1119340392    0.3697035818    0.1592274544         -0.0056
C420       C    0.1259181755    0.3750932126    0.1419439044         -0.0056
C421       C    0.1179647108    0.3842245789    0.1227759010         -0.0056
C422       C    0.0268791156    0.3314196285    0.0847171727         -0.0056
C423       C    0.0372124060    0.3139795407    0.0776182873         -0.0056
C424       C    0.0594771862    0.3120515829    0.0796080941         -0.0056
C425       C    0.0717767933    0.3275783974    0.0886681055         -0.0056
C426       C    0.0615926370    0.3453370921    0.0947778215         -0.0056
C427       C    0.0393314145    0.3473167488    0.0928144740         -0.0056
H428       H    0.0903822126    0.2956642137    0.1090384550         -0.0056
H429       H    0.1286822958    0.2911159300    0.1178301857         -0.0056
H430       H    0.1665307902    0.3040418740    0.1163669002         -0.0056
H431       H    0.1920227150    0.3301698057    0.1049275334         -0.0056
H432       H    0.1987829814    0.3632961984    0.0863175225         -0.0056
H433       H    0.1842768956    0.3926510415    0.0663472290         -0.0056
H434       H    0.9943163053    0.3192644828    0.0792459789         -0.0056
H435       H    0.1410238022    0.3842055265    0.0239784752         -0.0056
H436       H    0.1188222913    0.4097519156    0.0060689557         -0.0056
H437       H    0.1168460747    0.4427024579    0.0677009196         -0.0056
H438       H    0.1393611533    0.4172604868    0.0853002760         -0.0056
H439       H    0.0945069315    0.4378400670    0.0088584442         -0.0056
H440       H    0.0884913014    0.3425884883    0.9926383465         -0.0056
H441       H    0.0668883408    0.3732190171    0.9884907271         -0.0056
H442       H    0.0503938092    0.4035322399    0.0061771666         -0.0056
H443       H    0.0445917025    0.4240141287    0.0395364815         -0.0056
H444       H    0.0518952855    0.4304487582    0.0799927682         -0.0056
H445       H    0.0697624737    0.4203607634    0.1148041527         -0.0056
H446       H    0.1212158860    0.2595646452    0.0471287902         -0.0056
H447       H    0.1376830354    0.3572930161    0.1802512327         -0.0056
H448       H    0.0649787347    0.3861552801    0.1368026561         -0.0056
H449       H    0.0788061194    0.3701699776    0.1704205598         -0.0056
H450       H    0.1429366009    0.3718841585    0.1430760442         -0.0056
H451       H    0.1289514822    0.3882499228    0.1096448721         -0.0056
H452       H    0.0279760446    0.3015783760    0.0712072743         -0.0056
H453       H    0.0670449088    0.2982433324    0.0745888460         -0.0056
H454       H    0.0706987291    0.3572143580    0.1022621212         -0.0056
H455       H    0.0318447832    0.3609728335    0.0984315403         -0.0056
C456       C    0.1080786868    0.3298092100    0.0305705012         -0.0056
C457       C    0.1295161903    0.3276157376    0.0370362699         -0.0056
C458       C    0.1376754811    0.3087064887    0.0421171005         -0.0056
C459       C    0.1244533986    0.2916900955    0.0411395769         -0.0056
C460       C    0.1027878675    0.2935535001    0.0351108914         -0.0056
C461       C    0.0942681328    0.3120086648    0.0295827276         -0.0056
H462       H    0.1399526402    0.3404815821    0.0380213038         -0.0056
H463       H    0.1543673464    0.3073990737    0.0469670082         -0.0056
H464       H    0.0924476422    0.2805909384    0.0344491938         -0.0056
H465       H    0.0774977415    0.3132507509    0.0250164564         -0.0056
C466       C    0.2800332841    0.1376063963    0.9595297732         -0.0056
C467       C    0.2722517140    0.1366517459    0.9814818498         -0.0056
C468       C    0.2506215647    0.1321521811    0.9854753869         -0.0056
C469       C    0.2366427516    0.1288291126    0.9676246967         -0.0056
C470       C    0.2146944486    0.1247152252    0.9707970750         -0.0056
C471       C    0.2010300216    0.1219655029    0.9524492507         -0.0056
C472       C    0.2091086022    0.1235126622    0.9307180657         -0.0056
C473       C    0.1960414125    0.1211334282    0.9118474323         -0.0056
C474       C    0.2049003882    0.1230936166    0.8904700333         -0.0056
C475       C    0.2267801779    0.1276750414    0.8881903012         -0.0056
C476       C    0.2309892284    0.1276980908    0.9275769307         -0.0056
C477       C    0.2448993627    0.1300095770    0.9459544870         -0.0056
C478       C    0.3713765584    0.1479043448    0.9518932758         -0.0056
C479       C    0.2369968352    0.1297485875    0.8664376018         -0.0056
C480       C    0.2411777920    0.1487611643    0.8579679237         -0.0056
C481       C    0.2543889220    0.1510391894    0.8394027100         -0.0056
C482       C    0.2638797765    0.1343463695    0.8293668824         -0.0056
C483       C    0.2588109887    0.1152167356    0.8372932666         -0.0056
C484       C    0.2453974004    0.1129542477    0.8557256369         -0.0056
C485       C    0.2810792633    0.1374259727    0.8129115907         -0.0056
C486       C    0.2747690978    0.1792769988    0.9035885080         -0.0056
C487       C    0.2847738042    0.1942399090    0.8909632661         -0.0056
C488       C    0.2984177234    0.1889854403    0.8733637219         -0.0056
C489       C    0.3028571571    0.1688649689    0.8691245463         -0.0056
C490       C    0.3178561148    0.1628893430    0.8530077908         -0.0056
C491       C    0.3230354234    0.1426728722    0.8504427398         -0.0056
C492       C    0.3130696988    0.1281646099    0.8637532731         -0.0056
C493       C    0.3184252918    0.1079412832    0.8622861967         -0.0056
C494       C    0.3088530944    0.0941441103    0.8766879669         -0.0056
C495       C    0.2935193328    0.1005620396    0.8922810390         -0.0056
C496       C    0.2975847337    0.1340029500    0.8794394724         -0.0056
C497       C    0.2924694861    0.1543783096    0.8820771604         -0.0056
C498       C    0.2355388082    0.1970597349    0.9880912806         -0.0056
C499       C    0.2615460240    0.0525296984    0.9640533970         -0.0056
Cu500     Cu    0.2686036684    0.1355596672    0.9106821366             1.0
N501       N    0.2661892595    0.1339494671    0.9425062296         -0.0056
N502       N    0.2389187262    0.1298680085    0.9067178581         -0.0056
N503       N    0.2782026609    0.1599592185    0.8980481787         -0.0056
N504       N    0.2881144409    0.1201820880    0.8928535587         -0.0056
N505       N    0.3830172363    0.1354350182    0.9406060195         -0.0056
N506       N    0.2939951127    0.1229381128    0.8077631825         -0.0056
N507       N    0.2150375618    0.1954226528    0.9917206841         -0.0056
N508       N    0.2743808694    0.0465761712    0.9797389084         -0.0056
C509       C    0.2852213665    0.0868804358    0.9093167998         -0.0056
C510       C    0.2996027609    0.0762272941    0.9227761350         -0.0056
C511       C    0.2920099797    0.0647838620    0.9404665557         -0.0056
C512       C    0.2698609760    0.0636491462    0.9447943257         -0.0056
C513       C    0.2554705980    0.0737958267    0.9308555684         -0.0056
C514       C    0.2631264120    0.0853607462    0.9132593006         -0.0056
C515       C    0.3477025333    0.1466836650    0.9514849532         -0.0056
C516       C    0.3356672685    0.1595642425    0.9649721041         -0.0056
C517       C    0.3134440805    0.1572020061    0.9668743363         -0.0056
C518       C    0.3028892386    0.1419474276    0.9552462700         -0.0056
C519       C    0.3147502433    0.1296918921    0.9409784522         -0.0056
C520       C    0.3369753383    0.1320090854    0.9390373347         -0.0056
H521       H    0.2828857860    0.1391296031    0.9954507236         -0.0056
H522       H    0.2448362904    0.1313833582    0.0024353120         -0.0056
H523       H    0.2080901687    0.1237359824    0.9874191650         -0.0056
H524       H    0.1841799958    0.1188316255    0.9552450377         -0.0056
H525       H    0.1791085832    0.1177882216    0.9136069863         -0.0056
H526       H    0.1948477987    0.1211604317    0.8759446971         -0.0056
H527       H    0.3788886089    0.1590679321    0.9622960122         -0.0056
H528       H    0.2350736839    0.1618506780    0.8663825347         -0.0056
H529       H    0.2582816496    0.1659258350    0.8337584656         -0.0056
H530       H    0.2660284570    0.1020945609    0.8299662922         -0.0056
H531       H    0.2425004997    0.0981932318    0.8623300174         -0.0056
H532       H    0.2848615135    0.1526014749    0.8083370672         -0.0056
H533       H    0.2824858348    0.2097967769    0.8950827931         -0.0056
H534       H    0.3062082940    0.2005885215    0.8638131540         -0.0056
H535       H    0.3259424604    0.1738563780    0.8427960666         -0.0056
H536       H    0.3350578127    0.1384428510    0.8383272647         -0.0056
H537       H    0.3303761006    0.1028988633    0.8504811177         -0.0056
H538       H    0.3135771628    0.0786441657    0.8758828089         -0.0056
H539       H    0.2461369314    0.2024604524    0.0010220585         -0.0056
H540       H    0.2443190978    0.0507872198    0.9657504592         -0.0056
H541       H    0.3167693258    0.0773535595    0.9200794515         -0.0056
H542       H    0.3034658319    0.0570658023    0.9509164149         -0.0056
H543       H    0.2383267305    0.0730978620    0.9338420574         -0.0056
H544       H    0.2518270068    0.0930743022    0.9027228673         -0.0056
H545       H    0.3435549994    0.1710505146    0.9746185924         -0.0056
H546       H    0.3045572508    0.1669703764    0.9778579531         -0.0056
H547       H    0.3070060843    0.1176071828    0.9323536308         -0.0056
H548       H    0.3458001598    0.1218314619    0.9284785274         -0.0056
C549       C    0.2639216646    0.1841823696    0.9245208976         -0.0056
C550       C    0.2427318193    0.1784612125    0.9288007917         -0.0056
C551       C    0.2333725685    0.1825400286    0.9494918212         -0.0056
C552       C    0.2451444714    0.1921517877    0.9663868335         -0.0056
C553       C    0.2665578133    0.1976962007    0.9626455089         -0.0056
C554       C    0.2762170890    0.1942079439    0.9422097806         -0.0056
H555       H    0.2334062996    0.1709661246    0.9161227913         -0.0056
H556       H    0.2168957018    0.1780468732    0.9523430944         -0.0056
H557       H    0.2757965051    0.2049726436    0.9755653263         -0.0056
H558       H    0.2927815973    0.1985125679    0.9395581480         -0.0056
C559       C    0.2799846218    0.8596556407    0.0598859047         -0.0056
C560       C    0.2722024484    0.8606114161    0.0379341533         -0.0056
C561       C    0.2505728065    0.8651137420    0.0339415348         -0.0056
C562       C    0.2365950686    0.8684384639    0.0517928219         -0.0056
C563       C    0.2146472456    0.8725551474    0.0486213721         -0.0056
C564       C    0.2009838288    0.8753064801    0.0669697759         -0.0056
C565       C    0.2090629207    0.8737581597    0.0887006189         -0.0056
C566       C    0.1959967061    0.8761389252    0.1075718044         -0.0056
C567       C    0.2048561223    0.8741774792    0.1289488263         -0.0056
C568       C    0.2267353354    0.8695932726    0.1312276290         -0.0056
C569       C    0.2309430558    0.8695699437    0.0918408276         -0.0056
C570       C    0.2448522413    0.8672568162    0.0734626852         -0.0056
C571       C    0.3713266842    0.8493460911    0.0675185925         -0.0056
C572       C    0.2369524297    0.8675182949    0.1529798949         -0.0056
C573       C    0.2411309608    0.8485051351    0.1614492505         -0.0056
C574       C    0.2543423913    0.8462253201    0.1800139069         -0.0056
C575       C    0.2638359639    0.8629168752    0.1900494806         -0.0056
C576       C    0.2587696367    0.8820472008    0.1821234560         -0.0056
C577       C    0.2453557502    0.8843115034    0.1636916512         -0.0056
C578       C    0.2810355657    0.8598349912    0.2065040459         -0.0056
C579       C    0.2747163785    0.8179853454    0.1158270517         -0.0056
C580       C    0.2847193766    0.8030210890    0.1284517658         -0.0056
C581       C    0.2983646377    0.8082737192    0.1460507952         -0.0056
C582       C    0.3028070830    0.8283936017    0.1502899505         -0.0056
C583       C    0.3178074356    0.8343672272    0.1664061417         -0.0056
C584       C    0.3229897130    0.8545830264    0.1689711428         -0.0056
C585       C    0.3130256088    0.8690926343    0.1556611321         -0.0056
C586       C    0.3183841347    0.8893152741    0.1571281516         -0.0056
C587       C    0.3088134195    0.9031137498    0.1427268822         -0.0056
C588       C    0.2934782177    0.8966978599    0.1271343845         -0.0056
C589       C    0.2975392829    0.8632563533    0.1399755181         -0.0056
C590       C    0.2924210413    0.8428816577    0.1373378760         -0.0056
C591       C    0.2354807071    0.8002081131    0.0313257378         -0.0056
C592       C    0.2615093402    0.9447347050    0.0553637150         -0.0056
Cu593     Cu    0.2685569436    0.8617035018    0.1087340240             1.0
N594       N    0.2661416922    0.8633142114    0.0769100424         -0.0056
N595       N    0.2388729467    0.8673988893    0.1126995593         -0.0056
N596       N    0.2781528826    0.8373026557    0.1213673952         -0.0056
N597       N    0.2880705090    0.8770784990    0.1265619286         -0.0056
N598       N    0.3829695201    0.8618138729    0.0788054735         -0.0056
N599       N    0.2939536542    0.8743211845    0.2116520427         -0.0056
N600       N    0.2149795721    0.8018478113    0.0276971840         -0.0056
N601       N    0.2743445059    0.9506867095    0.0396777275         -0.0056
C602       C    0.2851816284    0.9103806224    0.1100990716         -0.0056
C603       C    0.2995640883    0.9210320316    0.0966392348         -0.0056
C604       C    0.2919723428    0.9324765373    0.0789492154         -0.0056
C605       C    0.2698233553    0.9336140821    0.0746223582         -0.0056
C606       C    0.2554320003    0.9234691321    0.0885616216         -0.0056
C607       C    0.2630867580    0.9119031316    0.1061574846         -0.0056
C608       C    0.3476528472    0.8505697623    0.0679278909         -0.0056
C609       C    0.3356152915    0.8376907936    0.0544411283         -0.0056
C610       C    0.3133923765    0.8400558527    0.0525398217         -0.0056
C611       C    0.3028401014    0.8553116913    0.0641684406         -0.0056
C612       C    0.3147033341    0.8675656351    0.0784358723         -0.0056
C613       C    0.3369281639    0.8652456186    0.0803760644         -0.0056
H614       H    0.2828356965    0.8581323036    0.0239648258         -0.0056
H615       H    0.2447870705    0.8658834054    0.0169818519         -0.0056
H616       H    0.2080425454    0.8735353321    0.0319995594         -0.0056
H617       H    0.1841341558    0.8784425064    0.0641747015         -0.0056
H618       H    0.1790642946    0.8794862845    0.1058129681         -0.0056
H619       H    0.1948042979    0.8761118423    0.1434745881         -0.0056
H620       H    0.3788367925    0.8381816205    0.0571154605         -0.0056
H621       H    0.2350247030    0.8354164475    0.1530347840         -0.0056
H622       H    0.2582331864    0.8313381462    0.1856578735         -0.0056
H623       H    0.2659892228    0.8951684155    0.1894502408         -0.0056
H624       H    0.2424607318    0.8990729279    0.1570875069         -0.0056
H625       H    0.2848158062    0.8446589814    0.2110782938         -0.0056
H626       H    0.2824290503    0.7874645370    0.1243322078         -0.0056
H627       H    0.3061538755    0.7966695915    0.1556009526         -0.0056
H628       H    0.3258925613    0.8233991041    0.1766174482         -0.0056
H629       H    0.3350131135    0.8588114493    0.1810861611         -0.0056
H630       H    0.3303360600    0.8943561067    0.1689327832         -0.0056
H631       H    0.3135397250    0.9186130917    0.1435319713         -0.0056
H632       H    0.2460776246    0.7948061383    0.0183944844         -0.0056
H633       H    0.2442826053    0.9464793731    0.0536673697         -0.0056
H634       H    0.3167305832    0.9199035778    0.0993352087         -0.0056
H635       H    0.3034289433    0.9401932151    0.0684989503         -0.0056
H636       H    0.2382881319    0.9241692842    0.0855758378         -0.0056
H637       H    0.2517866080    0.9041909371    0.1166943173         -0.0056
H638       H    0.3435010597    0.8262035859    0.0447942263         -0.0056
H639       H    0.3045037841    0.8302886769    0.0415564895         -0.0056
H640       H    0.3069611888    0.8796512683    0.0870611062         -0.0056
H641       H    0.3457547922    0.8754220582    0.0909345929         -0.0056
C642       C    0.2638675408    0.8130814808    0.0948950655         -0.0056
C643       C    0.2426783673    0.8188053452    0.0906160818         -0.0056
C644       C    0.2333178380    0.8147278456    0.0699254017         -0.0056
C645       C    0.2450878012    0.8051147061    0.0530298322         -0.0056
C646       C    0.2665004783    0.7995675610    0.0567702388         -0.0056
C647       C    0.2761609398    0.8030544651    0.0772056008         -0.0056
H648       H    0.2333543434    0.8263015311    0.1032945226         -0.0056
H649       H    0.2168415161    0.8192231030    0.0670748367         -0.0056
H650       H    0.2757376974    0.7922900327    0.0438499862         -0.0056
H651       H    0.2927249234    0.7987477292    0.0798565230         -0.0056
C652       C    0.0947245831    0.6726271847    0.9257313411         -0.0056
C653       C    0.1017027453    0.6901091855    0.9150119982         -0.0056
C654       C    0.1234826669    0.6926708354    0.9099090853         -0.0056
C655       C    0.1383904738    0.6779470387    0.9157013971         -0.0056
C656       C    0.1604854097    0.6800574794    0.9113782874         -0.0056
C657       C    0.1750492247    0.6651826652    0.9179500020         -0.0056
C658       C    0.1677147278    0.6481285533    0.9291347619         -0.0056
C659       C    0.1816716499    0.6329696441    0.9362821064         -0.0056
C660       C    0.1735099846    0.6163331121    0.9476667891         -0.0056
C661       C    0.1514075226    0.6151500587    0.9520398549         -0.0056
C662       C    0.1456797008    0.6460804429    0.9335176504         -0.0056
C663       C    0.1309084530    0.6607601224    0.9264862541         -0.0056
C664       C    0.0031524280    0.6651094837    0.9344042953         -0.0056
C665       C    0.1418984516    0.5981760665    0.9636360010         -0.0056
C666       C    0.1363978015    0.5999437856    0.9860989611         -0.0056
C667       C    0.1237645218    0.5853857896    0.9962496906         -0.0056
C668       C    0.1161671257    0.5690952778    0.9839254658         -0.0056
C669       C    0.1225833709    0.5669035496    0.9616485887         -0.0056
C670       C    0.1354220864    0.5813772264    0.9515861149         -0.0056
C671       C    0.0994094737    0.5563071108    0.9936660195         -0.0056
C672       C    0.0984927402    0.6478683988    0.9931387064         -0.0056
C673       C    0.0877092337    0.6440810669    0.0132177924         -0.0056
C674       C    0.0752677041    0.6267871000    0.0154650283         -0.0056
C675       C    0.0727756297    0.6138531364    0.9973428558         -0.0056
C676       C    0.0589901157    0.5973094381    0.9981145491         -0.0056
C677       C    0.0557044254    0.5856073118    0.9790784944         -0.0056
C678       C    0.0663825601    0.5901444908    0.9591271322         -0.0056
C679       C    0.0628791473    0.5792971398    0.9395640898         -0.0056
C680       C    0.0730605329    0.5849998703    0.9197851321         -0.0056
C681       C    0.0871610916    0.6013552803    0.9197117088         -0.0056
C682       C    0.0806808842    0.6063168455    0.9584469940         -0.0056
C683       C    0.0838860187    0.6181453945    0.9776024842         -0.0056
C684       C    0.1327109727    0.7256844730    0.9735543255         -0.0056
C685       C    0.1204180581    0.6382580400    0.8407210823         -0.0056
Cu686     Cu    0.1081891271    0.6337593125    0.9470542549             1.0
N687       N    0.1094952092    0.6583956963    0.9308022919         -0.0056
N688       N    0.1384051068    0.6300144694    0.9449194780         -0.0056
N689       N    0.0969826987    0.6343419028    0.9764688048         -0.0056
N690       N    0.0908013320    0.6112191829    0.9390982737         -0.0056
N691       N    0.9930925418    0.6496277801    0.9267097750         -0.0056
N692       N    0.0880175287    0.5446721659    0.9810556850         -0.0056
N693       N    0.1531298758    0.7292001099    0.9713822503         -0.0056
N694       N    0.1075471090    0.6470687127    0.8268473875         -0.0056
C695       C    0.0959607730    0.6091115115    0.8987518230         -0.0056
C696       C    0.0820483699    0.6138871867    0.8811918529         -0.0056
C697       C    0.0899240552    0.6231456819    0.8620966084         -0.0056
C698       C    0.1119126807    0.6275582561    0.8601862517         -0.0056
C699       C    0.1258971048    0.6221699236    0.8774700122         -0.0056
C700       C    0.1179443286    0.6130377302    0.8966378493         -0.0056
C701       C    0.0268517951    0.6658337634    0.9346952743         -0.0056
C702       C    0.0371829024    0.6832748278    0.9417943969         -0.0056
C703       C    0.0594474962    0.6852049429    0.9398049652         -0.0056
C704       C    0.0717491013    0.6696793445    0.9307450978         -0.0056
C705       C    0.0615671457    0.6519196846    0.9246351459         -0.0056
C706       C    0.0393061161    0.6499378712    0.9265981182         -0.0056
H707       H    0.0903511882    0.7015953879    0.9103751772         -0.0056
H708       H    0.1286509132    0.7061473990    0.9015840965         -0.0056
H709       H    0.1665008918    0.6932251074    0.9030479579         -0.0056
H710       H    0.1919956486    0.6670996037    0.9144876462         -0.0056
H711       H    0.1987594241    0.6339738075    0.9330976426         -0.0056
H712       H    0.1842563790    0.6046175019    0.9530675846         -0.0056
H713       H    0.9942874531    0.6779857463    0.9401659766         -0.0056
H714       H    0.1410014555    0.6130587082    0.9954356561         -0.0056
H715       H    0.1188025802    0.5875101194    0.0133447115         -0.0056
H716       H    0.1168314458    0.5545595750    0.9517125895         -0.0056
H717       H    0.1393438948    0.5800037751    0.9341137018         -0.0056
H718       H    0.0944905648    0.5594196274    0.0105547143         -0.0056
H719       H    0.0884634595    0.6546705748    0.0267750756         -0.0056
H720       H    0.0668640032    0.6240379462    0.0309222215         -0.0056
H721       H    0.0503733724    0.5937231841    0.0132353940         -0.0056
H722       H    0.0445743265    0.5732408369    0.9798759053         -0.0056
H723       H    0.0518794664    0.5668070369    0.9394197147         -0.0056
H724       H    0.0697461647    0.5768968644    0.9046086637         -0.0056
H725       H    0.1211794049    0.7376977458    0.9722854889         -0.0056
H726       H    0.1376606412    0.6399713739    0.8391629459         -0.0056
H727       H    0.0649588574    0.6111019527    0.8826102117         -0.0056
H728       H    0.0787850380    0.6270886939    0.8489925974         -0.0056
H729       H    0.1429151768    0.6253806254    0.8763381657         -0.0056
H730       H    0.1289313105    0.6090134077    0.9097690444         -0.0056
H731       H    0.0279449617    0.6956750804    0.9482053046         -0.0056
H732       H    0.0670135022    0.6990139091    0.9448243909         -0.0056
H733       H    0.0706747771    0.6400433215    0.9171509514         -0.0056
H734       H    0.0318211955    0.6362810804    0.9209808761         -0.0056
C735       C    0.1080501018    0.6674518616    0.9888432932         -0.0056
C736       C    0.1294874768    0.6696474249    0.9823778870         -0.0056
C737       C    0.1376446544    0.6885574776    0.9772972632         -0.0056
C738       C    0.1244205601    0.7055725902    0.9782746332         -0.0056
C739       C    0.1027551276    0.7037070739    0.9843029538         -0.0056
C740       C    0.0942374440    0.6852510693    0.9898309065         -0.0056
H741       H    0.1399254527    0.6567825919    0.9813929764         -0.0056
H742       H    0.1543364628    0.6898665202    0.9724476362         -0.0056
H743       H    0.0924133714    0.7166686345    0.9849645300         -0.0056
H744       H    0.0774671076    0.6840073489    0.9943968960         -0.0056
C745       C    0.6522586044    0.8596526103    0.4595012742         -0.0056
C746       C    0.6600413424    0.8606085654    0.4814528001         -0.0056
C747       C    0.6816714965    0.8651092004    0.4854447038         -0.0056
C748       C    0.6956491633    0.8684320448    0.4675929350         -0.0056
C749       C    0.7175974443    0.8725469787    0.4707636810         -0.0056
C750       C    0.7312607250    0.8752964416    0.4524148301         -0.0056
C751       C    0.7231810171    0.8737479753    0.4306842478         -0.0056
C752       C    0.7362470493    0.8761269018    0.4118126466         -0.0056
C753       C    0.7273869857    0.8741653901    0.3904359232         -0.0056
C754       C    0.7055072898    0.8695829616    0.3881578449         -0.0056
C755       C    0.7013004181    0.8695615043    0.4275447447         -0.0056
C756       C    0.6873914107    0.8672502687    0.4459233189         -0.0056
C757       C    0.5609154021    0.8493505557    0.4518711899         -0.0056
C758       C    0.6952895293    0.8675080195    0.3664059142         -0.0056
C759       C    0.6911090163    0.8484948907    0.3579375619         -0.0056
C760       C    0.6778969691    0.8462154890    0.3393733198         -0.0056
C761       C    0.6684047591    0.8629074681    0.3293371696         -0.0056
C762       C    0.6734730675    0.8820376660    0.3372621647         -0.0056
C763       C    0.6868875663    0.8843015329    0.3556935513         -0.0056
C764       C    0.6512045103    0.8598264185    0.3128831489         -0.0056
C765       C    0.6575216965    0.8179797172    0.4035619926         -0.0056
C766       C    0.6475170099    0.8030158288    0.3909382235         -0.0056
C767       C    0.6338718656    0.8082689464    0.3733392590         -0.0056
C768       C    0.6294312325    0.8283890448    0.3690992470         -0.0056
C769       C    0.6144310971    0.8343633301    0.3529831178         -0.0056
C770       C    0.6092506770    0.8545794726    0.3504172724         -0.0056
C771       C    0.6192164415    0.8690887421    0.3637263608         -0.0056
C772       C    0.6138597975    0.8893117824    0.3622585008         -0.0056
C773       C    0.6234321293    0.9031099952    0.3766588909         -0.0056
C774       C    0.6387670608    0.8966933967    0.3922513399         -0.0056
C775       C    0.6347025540    0.8632517433    0.3794118951         -0.0056
C776       C    0.6398189247    0.8428767126    0.3820503904         -0.0056
C777       C    0.6967575111    0.8002023855    0.4880632470         -0.0056
C778       C    0.6707420337    0.9447302726    0.4640189794         -0.0056
Cu779     Cu    0.6636854211    0.8616976207    0.4106527931             1.0
N780       N    0.6661015124    0.8633093468    0.4424766420         -0.0056
N781       N    0.6933698711    0.8673903249    0.4066862999         -0.0056
N782       N    0.6540869005    0.8372971075    0.3980208073         -0.0056
N783       N    0.6441729255    0.8770735968    0.3928246065         -0.0056
N784       N    0.5492735020    0.8618188966    0.4405839836         -0.0056
N785       N    0.6382876813    0.8743135154    0.3077347599         -0.0056
N786       N    0.7172588795    0.8018404750    0.4916912486         -0.0056
N787       N    0.6579077700    0.9506839739    0.4797049798         -0.0056
C788       C    0.6470653126    0.9103761061    0.4092858085         -0.0056
C789       C    0.6326841514    0.9210292585    0.4227454699         -0.0056
C790       C    0.6402773618    0.9324737964    0.4404347680         -0.0056
C791       C    0.6624265503    0.9336096189    0.4447610588         -0.0056
C792       C    0.6768166443    0.9234629065    0.4308219465         -0.0056
C793       C    0.6691604122    0.9118968828    0.4132268121         -0.0056
C794       C    0.5845893460    0.8505721927    0.4514612858         -0.0056
C795       C    0.5966259743    0.8376927157    0.4649483843         -0.0056
C796       C    0.6188491540    0.8400559531    0.4668490643         -0.0056
C797       C    0.6294026214    0.8553104452    0.4552194739         -0.0056
C798       C    0.6175402400    0.8675648524    0.4409517322         -0.0056
C799       C    0.5953151489    0.8652466563    0.4390121645         -0.0056
H800       H    0.6494081616    0.8581308961    0.4954224916         -0.0056
H801       H    0.6874576716    0.8658790219    0.5024042162         -0.0056
H802       H    0.7242025962    0.8735272388    0.4873852942         -0.0056
H803       H    0.7481107549    0.8784311386    0.4552093654         -0.0056
H804       H    0.7531798154    0.8794728850    0.4135709318         -0.0056
H805       H    0.7374386794    0.8760983382    0.3759098367         -0.0056
H806       H    0.5534044622    0.8381871251    0.4622750280         -0.0056
H807       H    0.6972142174    0.8354060057    0.3663525114         -0.0056
H808       H    0.6740046435    0.8313284302    0.3337301530         -0.0056
H809       H    0.6662545647    0.8951592148    0.3299349211         -0.0056
H810       H    0.6897841242    0.8990629642    0.3622969248         -0.0056
H811       H    0.6474227351    0.8446505554    0.3083097121         -0.0056
H812       H    0.6498059532    0.7874592399    0.3950584703         -0.0056
H813       H    0.6260813235    0.7966651161    0.3637898352         -0.0056
H814       H    0.6063447130    0.8233955042    0.3427725213         -0.0056
H815       H    0.5972274150    0.8588084552    0.3383023305         -0.0056
H816       H    0.6019080941    0.8943531806    0.3504539052         -0.0056
H817       H    0.6187072729    0.9186097090    0.3758531720         -0.0056
H818       H    0.6861603618    0.7948018110    0.5009950031         -0.0056
H819       H    0.6879689702    0.9464735371    0.4657148433         -0.0056
H820       H    0.6155174916    0.9199021649    0.4200499467         -0.0056
H821       H    0.6288217173    0.9401918524    0.4508849300         -0.0056
H822       H    0.6939606434    0.9241617115    0.4338073006         -0.0056
H823       H    0.6804596048    0.9041833201    0.4026900859         -0.0056
H824       H    0.5887393277    0.8262065510    0.4745960164         -0.0056
H825       H    0.6277370596    0.8302884413    0.4778326567         -0.0056
H826       H    0.6252833425    0.8796494941    0.4323257429         -0.0056
H827       H    0.5864892554    0.8754234428    0.4284533548         -0.0056
C828       C    0.6683705223    0.8130757317    0.4244939618         -0.0056
C829       C    0.6895603297    0.8187979537    0.4287721826         -0.0056
C830       C    0.6989209202    0.8147204508    0.4494628408         -0.0056
C831       C    0.6871504124    0.8051089639    0.4663591408         -0.0056
C832       C    0.6657371297    0.7995635009    0.4626194939         -0.0056
C833       C    0.6560765568    0.8030504437    0.4421841889         -0.0056
H834       H    0.6988847890    0.8262928576    0.4160931688         -0.0056
H835       H    0.7153977289    0.8192144129    0.4523128104         -0.0056
H836       H    0.6564995012    0.7922872565    0.4755403070         -0.0056
H837       H    0.6395121085    0.7987450182    0.4395338550         -0.0056
C838       C    0.8374950265    0.6726208039    0.5936720814         -0.0056
C839       C    0.8305153435    0.6901027075    0.6043906213         -0.0056
C840       C    0.8087351027    0.6926632706    0.6094928101         -0.0056
C841       C    0.7938284883    0.6779384733    0.6037005673         -0.0056
C842       C    0.7717332863    0.6800477877    0.6080229592         -0.0056
C843       C    0.7571706957    0.6651719708    0.6014513289         -0.0056
C844       C    0.7645066960    0.6481179633    0.5902673677         -0.0056
C845       C    0.7505510339    0.6329580696    0.5831201350         -0.0056
C846       C    0.7587141788    0.6163216830    0.5717362609         -0.0056
C847       C    0.7808168432    0.6151397549    0.5673638814         -0.0056
C848       C    0.7865419865    0.6460709740    0.5858851932         -0.0056
C849       C    0.8013120110    0.6607516807    0.5929165179         -0.0056
C850       C    0.9290679463    0.6651080261    0.5850020602         -0.0056
C851       C    0.7903274232    0.5981659784    0.5557685948         -0.0056
C852       C    0.7958285622    0.5999333865    0.5333057348         -0.0056
C853       C    0.8084631416    0.5853758223    0.5231558734         -0.0056
C854       C    0.8160613458    0.5690860795    0.5354808784         -0.0056
C855       C    0.8096446466    0.5668946055    0.5577576432         -0.0056
C856       C    0.7968046396    0.5813678365    0.5678192459         -0.0056
C857       C    0.8328201621    0.5562985882    0.5257412526         -0.0056
C858       C    0.8337304486    0.6478599422    0.5262654546         -0.0056
C859       C    0.8445147692    0.6440726632    0.5061868134         -0.0056
C860       C    0.8569575750    0.6267793357    0.5039405337         -0.0056
C861       C    0.8594500636    0.6138460136    0.5220632222         -0.0056
C862       C    0.8732367608    0.5973030713    0.5212924987         -0.0056
C863       C    0.8765227537    0.5856016565    0.5403290504         -0.0056
C864       C    0.8658437556    0.5901387849    0.5602799452         -0.0056
C865       C    0.8693473966    0.5792921723    0.5798434616         -0.0056
C866       C    0.8591650706    0.5849948755    0.5996219265         -0.0056
C867       C    0.8450633608    0.6013494925    0.5996943772         -0.0056
C868       C    0.8515442769    0.6063103523    0.5609591114         -0.0056
C869       C    0.8483388342    0.6181381910    0.5418031221         -0.0056
C870       C    0.7995062147    0.7256746283    0.5458461689         -0.0056
C871       C    0.8118016458    0.6382525608    0.6786827674         -0.0056
Cu872     Cu    0.8240337952    0.6337515832    0.5723501063             1.0
N873       N    0.8227255387    0.6583883426    0.5886011868         -0.0056
N874       N    0.7938180203    0.6300050955    0.5744841287         -0.0056
N875       N    0.8352409854    0.6343339921    0.5429358639         -0.0056
N876       N    0.8414229566    0.6112126540    0.5803073679         -0.0056
N877       N    0.9391287100    0.6496271024    0.5926974050         -0.0056
N878       N    0.8442125803    0.5446646341    0.5383523186         -0.0056
N879       N    0.7790870054    0.7291891740    0.5480175271         -0.0056
N880       N    0.8246715972    0.6470643426    0.6925565363         -0.0056
C881       C    0.8362625625    0.6091058070    0.6206537402         -0.0056
C882       C    0.8501741507    0.6138827520    0.6382139530         -0.0056
C883       C    0.8422972938    0.6231413310    0.6573086501         -0.0056
C884       C    0.8203083062    0.6275527183    0.6592182132         -0.0056
C885       C    0.8063247325    0.6221631196    0.6419342288         -0.0056
C886       C    0.8142786734    0.6130308447    0.6227669370         -0.0056
C887       C    0.9053685362    0.6658309616    0.5847103639         -0.0056
C888       C    0.8950363974    0.6832712472    0.5776103419         -0.0056
C889       C    0.8727716138    0.6852001619    0.5795990569         -0.0056
C890       C    0.8604708522    0.6696741205    0.5886590970         -0.0056
C891       C    0.8706538887    0.6519152036    0.5947699550         -0.0056
C892       C    0.8929151110    0.6499345910    0.5928077010         -0.0056
H893       H    0.8418659671    0.7015896782    0.6090273803         -0.0056
H894       H    0.8035656824    0.7061397728    0.6178171860         -0.0056
H895       H    0.7657166517    0.6932153069    0.6163526616         -0.0056
H896       H    0.7402240427    0.6670880496    0.6049131238         -0.0056
H897       H    0.7334631024    0.6339613576    0.5863040652         -0.0056
H898       H    0.7479687549    0.6046053177    0.5663355530         -0.0056
H899       H    0.9379321738    0.6779846292    0.5792401966         -0.0056
H900       H    0.7912242417    0.6130477915    0.5239684559         -0.0056
H901       H    0.8134254006    0.5874999592    0.5060609246         -0.0056
H902       H    0.8153971677    0.5545512298    0.5676942335         -0.0056
H903       H    0.7928824508    0.5799946471    0.5852915914         -0.0056
H904       H    0.8377393132    0.5594109152    0.5088525948         -0.0056
H905       H    0.8437601694    0.6546617537    0.4926291453         -0.0056
H906       H    0.8653618910    0.6240302283    0.4884836802         -0.0056
H907       H    0.8818541687    0.5937168850    0.5061720285         -0.0056
H908       H    0.8876537431    0.5732357871    0.5395323885         -0.0056
H909       H    0.8803479511    0.5668026936    0.5799885862         -0.0056
H910       H    0.8624795938    0.5768924760    0.6147987693         -0.0056
H911       H    0.8110369039    0.7376885864    0.5471149307         -0.0056
H912       H    0.7945588999    0.6399649656    0.6802403412         -0.0056
H913       H    0.8672638975    0.6110984423    0.6367961890         -0.0056
H914       H    0.8534356763    0.6270853333    0.6704128514         -0.0056
H915       H    0.7893064040    0.6253728932    0.6430654680         -0.0056
H916       H    0.8032923327    0.6090055398    0.6096355588         -0.0056
H917       H    0.9042736419    0.6956718434    0.5711992791         -0.0056
H918       H    0.8652047746    0.6990085628    0.5745789369         -0.0056
H919       H    0.8615468874    0.6400385340    0.6022542905         -0.0056
H920       H    0.9004008378    0.6362783776    0.5984256298         -0.0056
C921       C    0.8241715939    0.6674429848    0.5305599174         -0.0056
C922       C    0.8027338883    0.6696375182    0.5370246220         -0.0056
C923       C    0.7945752436    0.6885472514    0.5421043595         -0.0056
C924       C    0.8077981691    0.7055630825    0.5411267927         -0.0056
C925       C    0.8294638971    0.7036986211    0.5350991690         -0.0056
C926       C    0.8379830282    0.6852429439    0.5295720976         -0.0056
H927       H    0.7922967893    0.6567721239    0.5380096685         -0.0056
H928       H    0.7778832108    0.6898554869    0.5469534539         -0.0056
H929       H    0.8398047607    0.7166607465    0.5344374508         -0.0056
H930       H    0.8547535766    0.6840000428    0.5250066407         -0.0056
C931       C    0.8375254390    0.3246139970    0.4257577623         -0.0056
C932       C    0.8305472074    0.3071323092    0.4150378617         -0.0056
C933       C    0.8087673774    0.3045711511    0.4099343258         -0.0056
C934       C    0.7938597220    0.3192951256    0.4157265653         -0.0056
C935       C    0.7717648650    0.3171851693    0.4114028340         -0.0056
C936       C    0.7572011824    0.3320601416    0.4179744886         -0.0056
C937       C    0.7645357260    0.3491139259    0.4291598064         -0.0056
C938       C    0.7505789258    0.3642729721    0.4363071128         -0.0056
C939       C    0.7587406230    0.3809091577    0.4476923659         -0.0056
C940       C    0.7808429847    0.3820917257    0.4520660335         -0.0056
C941       C    0.7865706711    0.3511615521    0.4335433135         -0.0056
C942       C    0.8013418039    0.3364817185    0.4265119869         -0.0056
C943       C    0.9290975069    0.3321298487    0.4344332661         -0.0056
C944       C    0.7903520888    0.3990653429    0.4636627924         -0.0056
C945       C    0.7958520540    0.3972971374    0.4861258580         -0.0056
C946       C    0.8084853561    0.4118547250    0.4962772299         -0.0056
C947       C    0.8160834592    0.4281453065    0.4839535534         -0.0056
C948       C    0.8096679028    0.4303375350    0.4616765561         -0.0056
C949       C    0.7968291641    0.4158642689    0.4516134363         -0.0056
C950       C    0.8328411073    0.4409329956    0.4936948189         -0.0056
C951       C    0.8337558764    0.3493716997    0.4931655615         -0.0056
C952       C    0.8445388867    0.3531584877    0.5132450101         -0.0056
C953       C    0.8569807254    0.3704521851    0.5154929422         -0.0056
C954       C    0.8594736013    0.3833864124    0.4973711128         -0.0056
C955       C    0.8732594507    0.3999298414    0.4981435211         -0.0056
C956       C    0.8765459421    0.4116322324    0.4791078037         -0.0056
C957       C    0.8658682837    0.4070955931    0.4591560655         -0.0056
C958       C    0.8693724943    0.4179432137    0.4395933477         -0.0056
C959       C    0.8591915549    0.4122410107    0.4198140019         -0.0056
C960       C    0.8450906447    0.3958858639    0.4197398593         -0.0056
C961       C    0.8515696296    0.3909235156    0.4584752068         -0.0056
C962       C    0.8483636878    0.3790946984    0.4776303592         -0.0056
C963       C    0.7995365254    0.2715565962    0.4735786156         -0.0056
C964       C    0.8118351546    0.3589850733    0.3407475723         -0.0056
Cu965     Cu    0.8240611214    0.3634817545    0.4470811605             1.0
N966       N    0.8227549746    0.3388456730    0.4308286339         -0.0056
N967       N    0.7938452841    0.3672271954    0.4449456762         -0.0056
N968       N    0.8352666903    0.3628984528    0.4764959900         -0.0056
N969       N    0.8414496329    0.3860216972    0.4391261173         -0.0056
N970       N    0.9391579493    0.3476114971    0.4267393409         -0.0056
N971       N    0.8442336669    0.4525679447    0.4810850316         -0.0056
N972       N    0.7791176088    0.2680413756    0.4714059323         -0.0056
N973       N    0.8247063127    0.3501743989    0.3268740238         -0.0056
C974       C    0.8362913991    0.3881301547    0.3987795773         -0.0056
C975       C    0.8502042045    0.3833545216    0.3812198673         -0.0056
C976       C    0.8423288688    0.3740964993    0.3621242185         -0.0056
C977       C    0.8203402029    0.3696843662    0.3602131935         -0.0056
C978       C    0.8063553977    0.3750726628    0.3774967051         -0.0056
C979       C    0.8143078195    0.3842043805    0.3966649460         -0.0056
C980       C    0.9053981157    0.3314060042    0.4347236115         -0.0056
C981       C    0.8950664270    0.3139650103    0.4418220897         -0.0056
C982       C    0.8728018487    0.3120353428    0.4398320359         -0.0056
C983       C    0.8605008402    0.3275613246    0.4307721815         -0.0056
C984       C    0.8706833556    0.3453208999    0.4246628769         -0.0056
C985       C    0.8929443715    0.3473022663    0.4266264722         -0.0056
H986       H    0.8418986497    0.2956459752    0.4104010898         -0.0056
H987       H    0.8035990794    0.2910948260    0.4016089125         -0.0056
H988       H    0.7657493381    0.3040177956    0.4030720647         -0.0056
H989       H    0.7402548168    0.3301435771    0.4145116497         -0.0056
H990       H    0.7334912217    0.3632691805    0.4331221817         -0.0056
H991       H    0.7479943265    0.3926248751    0.4530931330         -0.0056
H992       H    0.9379620375    0.3192533229    0.4401949017         -0.0056
H993       H    0.7912478476    0.3841821405    0.4954621510         -0.0056
H994       H    0.8134467596    0.4097300106    0.5133723345         -0.0056
H995       H    0.8154203808    0.4426815728    0.4517409722         -0.0056
H996       H    0.7929078885    0.4172380919    0.4341409506         -0.0056
H997       H    0.8377594626    0.4378200987    0.5105835751         -0.0056
H998       H    0.8437840416    0.3425687619    0.5268020461         -0.0056
H999       H    0.8653840408    0.3732009184    0.5309504137         -0.0056
H1000      H    0.8818758362    0.4035156768    0.5132646679         -0.0056
H1001      H    0.8876762854    0.4239984869    0.4799057707         -0.0056
H1002      H    0.8803724494    0.4304331148    0.4394495279         -0.0056
H1003      H    0.8625065352    0.4203442147    0.4046377942         -0.0056
H1004      H    0.8110678700    0.2595431308    0.4723098215         -0.0056
H1005      H    0.7945925794    0.3572720863    0.3391889495         -0.0056
H1006      H    0.8672937363    0.3861394139    0.3826387317         -0.0056
H1007      H    0.8534681780    0.3701535046    0.3490204132         -0.0056
H1008      H    0.7893372889    0.3718622964    0.3763643459         -0.0056
H1009      H    0.8033205465    0.3882286824    0.4097959411         -0.0056
H1010      H    0.9043039150    0.3015644764    0.4482329718         -0.0056
H1011      H    0.8652353996    0.2982264313    0.4448509675         -0.0056
H1012      H    0.8615761964    0.3571975603    0.4171787002         -0.0056
H1013      H    0.9004297491    0.3609590142    0.4210097190         -0.0056
C1014      C    0.8241982151    0.3297884879    0.4888694782         -0.0056
C1015      C    0.8027609787    0.3275934334    0.4824034657         -0.0056
C1016      C    0.7946035387    0.3086836191    0.4773222227         -0.0056
C1017      C    0.8078272369    0.2916682441    0.4782995718         -0.0056
C1018      C    0.8294925362    0.2935332549    0.4843284974         -0.0056
C1019      C    0.8380104596    0.3119890067    0.4898570690         -0.0056
H1020      H    0.7923233094    0.3404584771    0.4814185595         -0.0056
H1021      H    0.7779118415    0.3073749696    0.4724721323         -0.0056
H1022      H    0.8398339930    0.2805714909    0.4849900647         -0.0056
H1023      H    0.8547806914    0.3132323375    0.4944235226         -0.0056
C1024      C    0.6522497029    0.1375883402    0.5598508650         -0.0056
C1025      C    0.6600318824    0.1366343335    0.5378989830         -0.0056
C1026      C    0.6816617563    0.1321332553    0.5339058530         -0.0056
C1027      C    0.6956397079    0.1288080252    0.5517567762         -0.0056
C1028      C    0.7175877439    0.1246925511    0.5485848437         -0.0056
C1029      C    0.7312513448    0.1219406638    0.5669329318         -0.0056
C1030      C    0.7231722146    0.1234872161    0.5886639550         -0.0056
C1031      C    0.7362385947    0.1211058351    0.6075348588         -0.0056
C1032      C    0.7273791175    0.1230654999    0.6289120995         -0.0056
C1033      C    0.7054996647    0.1276485576    0.6311914220         -0.0056
C1034      C    0.7012918627    0.1276742278    0.5918046517         -0.0056
C1035      C    0.6873825164    0.1299879006    0.5734267916         -0.0056
C1036      C    0.5609071065    0.1478932147    0.5674850136         -0.0056
C1037      C    0.6952825041    0.1297216679    0.6529439254         -0.0056
C1038      C    0.6911029765    0.1487340914    0.6614148374         -0.0056
C1039      C    0.6778914624    0.1510121068    0.6799797684         -0.0056
C1040      C    0.6683988002    0.1343194713    0.6900140667         -0.0056
C1041      C    0.6734661312    0.1151898878    0.6820864702         -0.0056
C1042      C    0.6868801008    0.1129273854    0.6636543906         -0.0056
C1043      C    0.6511990677    0.1373995088    0.7064689987         -0.0056
C1044      C    0.6575158385    0.1792552776    0.6157953233         -0.0056
C1045      C    0.6475120684    0.1942182636    0.6284213089         -0.0056
C1046      C    0.6338671232    0.1889638761    0.6460200107         -0.0056
C1047      C    0.6294257593    0.1688435175    0.6502575803         -0.0056
C1048      C    0.6144257582    0.1628681681    0.6663733953         -0.0056
C1049      C    0.6092445638    0.1426519666    0.6689368081         -0.0056
C1050      C    0.6192094145    0.1281436714    0.6556255628         -0.0056
C1051      C    0.6138519699    0.1079206918    0.6570909946         -0.0056
C1052      C    0.6234233914    0.0941235811    0.6426885504         -0.0056
C1053      C    0.6387582192    0.1005411765    0.6270964621         -0.0056
C1054      C    0.6346953972    0.1339816709    0.6399403105         -0.0056
C1055      C    0.6398125470    0.1543567706    0.6373042699         -0.0056
C1056      C    0.6967503896    0.1970397435    0.5312951663         -0.0056
C1057      C    0.6707295116    0.0525104134    0.5553217120         -0.0056
Cu1058    Cu    0.6636775899    0.1355378599    0.6086987406             1.0
N1059      N    0.6660928623    0.1339293083    0.5768746129         -0.0056
N1060      N    0.6933618985    0.1298435770    0.6126636127         -0.0056
N1061      N    0.6540803758    0.1599374536    0.6213341386         -0.0056
N1062      N    0.6441648807    0.1201608219    0.6265255449         -0.0056
N1063      N    0.5492649584    0.1354241734    0.5787709734         -0.0056
N1064      N    0.6382817621    0.1229123927    0.7116159211         -0.0056
N1065      N    0.7172516047    0.1954012179    0.5276663388         -0.0056
N1066      N    0.6578946312    0.0465588302    0.5396353352         -0.0056
C1067      C    0.6470555033    0.0868598901    0.6100599924         -0.0056
C1068      C    0.6326735839    0.0762086881    0.5965993994         -0.0056
C1069      C    0.6402659035    0.0647656683    0.5789084080         -0.0056
C1070      C    0.6624149428    0.0636294164    0.5745813061         -0.0056
C1071      C    0.6768057853    0.0737741288    0.5885212849         -0.0056
C1072      C    0.6691504469    0.0853386466    0.6061181301         -0.0056
C1073      C    0.5845810096    0.1466706015    0.5678940497         -0.0056
C1074      C    0.5966178510    0.1595509893    0.5544082385         -0.0056
C1075      C    0.6188408882    0.1571870704    0.5525065880         -0.0056
C1076      C    0.6293940004    0.1419309671    0.5641339081         -0.0056
C1077      C    0.6175314502    0.1296755620    0.5784004374         -0.0056
C1078      C    0.5953065007    0.1319944357    0.5803409698         -0.0056
H1079      H    0.6493984737    0.1391138576    0.5239299283         -0.0056
H1080      H    0.6874474987    0.1313649480    0.5169460682         -0.0056
H1081      H    0.7241924624    0.1237137382    0.5319629066         -0.0056
H1082      H    0.7481011792    0.1188055891    0.5641374888         -0.0056
H1083      H    0.7531711810    0.1177593645    0.6057756364         -0.0056
H1084      H    0.7374310747    0.1211306628    0.6434376363         -0.0056
H1085      H    0.5533963818    0.1590580104    0.5570828305         -0.0056
H1086      H    0.6972085193    0.1618236000    0.6530013803         -0.0056
H1087      H    0.6739998851    0.1658987394    0.6856249580         -0.0056
H1088      H    0.6662472597    0.1020678710    0.6894122507         -0.0056
H1089      H    0.6897758929    0.0981665185    0.6570490402         -0.0056
H1090      H    0.6474180274    0.1525750511    0.7110444921         -0.0056
H1091      H    0.6498015568    0.2097751855    0.6243029849         -0.0056
H1092      H    0.6260772862    0.2005670326    0.6555711543         -0.0056
H1093      H    0.6063400684    0.1738352638    0.6765856390         -0.0056
H1094      H    0.5972214136    0.1384222135    0.6810515699         -0.0056
H1095      H    0.6019003374    0.1028785523    0.6688953039         -0.0056
H1096      H    0.6186979139    0.0786239710    0.6434924269         -0.0056
H1097      H    0.6861531577    0.2024420648    0.5183644202         -0.0056
H1098      H    0.6879563359    0.0507666435    0.5536251072         -0.0056
H1099      H    0.6155070344    0.0773361821    0.5992955829         -0.0056
H1100      H    0.6288096931    0.0570491380    0.5684576023         -0.0056
H1101      H    0.6939496849    0.0730749541    0.5855353262         -0.0056
H1102      H    0.6804502071    0.0930506808    0.6166555042         -0.0056
H1103      H    0.5887314507    0.1710384563    0.5447623141         -0.0056
H1104      H    0.6277289375    0.1669553599    0.5415239790         -0.0056
H1105      H    0.6252742576    0.1175897286    0.5870246468         -0.0056
H1106      H    0.5864804366    0.1218169126    0.5908987418         -0.0056
C1107      C    0.6683643720    0.1841609858    0.5948636561         -0.0056
C1108      C    0.6895538419    0.1784383673    0.5905840658         -0.0056
C1109      C    0.6989141117    0.1825176268    0.5698936485         -0.0056
C1110      C    0.6871436014    0.1921313141    0.5529989329         -0.0056
C1111      C    0.6657306362    0.1976772377    0.5567399334         -0.0056
C1112      C    0.6560704024    0.1941885764    0.5771750820         -0.0056
H1113      H    0.6988782914    0.1709417929    0.6032618397         -0.0056
H1114      H    0.7153906674    0.1780233075    0.5670426083         -0.0056
H1115      H    0.6564930028    0.2049551741    0.5438203295         -0.0056
H1116      H    0.6395061945    0.1984943831    0.5798264650         -0.0056
C1117      C    0.7800031538    0.3596493180    0.0598747713         -0.0056
C1118      C    0.7722215316    0.3606044476    0.0379227757         -0.0056
C1119      C    0.7505914093    0.3651043261    0.0339295048         -0.0056
C1120      C    0.7366126730    0.3684272326    0.0517803761         -0.0056
C1121      C    0.7146643960    0.3725414227    0.0486082579         -0.0056
C1122      C    0.7010000424    0.3752909705    0.0669562482         -0.0056
C1123      C    0.7090786695    0.3737433327    0.0886873368         -0.0056
C1124      C    0.6960115515    0.3761223763    0.1075581234         -0.0056
C1125      C    0.7048705693    0.3741617069    0.1289354107         -0.0056
C1126      C    0.7267503267    0.3695799961    0.1312148730         -0.0056
C1127      C    0.7309592691    0.3695576027    0.0918282107         -0.0056
C1128      C    0.7448693336    0.3672462887    0.0734504962         -0.0056
C1129      C    0.8713463623    0.3493502093    0.0675103384         -0.0056
C1130      C    0.7369670261    0.3675059472    0.1529674479         -0.0056
C1131      C    0.7411478460    0.3484931723    0.1614366709         -0.0056
C1132      C    0.7543590077    0.3462146676    0.1800017325         -0.0056
C1133      C    0.7638500302    0.3629072021    0.1900378586         -0.0056
C1134      C    0.7587813818    0.3820370342    0.1821119388         -0.0056
C1135      C    0.7453677620    0.3843000016    0.1636797219         -0.0056
C1136      C    0.7810495361    0.3598271123    0.2064929498         -0.0056
C1137      C    0.7747387699    0.3179777758    0.1158151499         -0.0056
C1138      C    0.7847433849    0.3030145280    0.1284399821         -0.0056
C1139      C    0.7983873966    0.3082685296    0.1460395385         -0.0056
C1140      C    0.8028270113    0.3283888755    0.1502791277         -0.0056
C1141      C    0.8178260635    0.3343640455    0.1663959009         -0.0056
C1142      C    0.8230055493    0.3545804125    0.1689613618         -0.0056
C1143      C    0.8130399104    0.3690890242    0.1556512278         -0.0056
C1144      C    0.8183956776    0.3893122647    0.1571187130         -0.0056
C1145      C    0.8088235569    0.4031098019    0.1427173233         -0.0056
C1146      C    0.7934896986    0.3966923229    0.1271242261         -0.0056
C1147      C    0.7975548531    0.3632511377    0.1399650176         -0.0056
C1148      C    0.7924394267    0.3428758825    0.1373269156         -0.0056
C1149      C    0.7355080991    0.3001969881    0.0313122828         -0.0056
C1150      C    0.7615165977    0.4447263039    0.0553531821         -0.0056
Cu1151    Cu    0.7685736892    0.3616953031    0.1087225412             1.0
N1152      N    0.7661592066    0.3633060984    0.0768985025         -0.0056
N1153      N    0.7388888057    0.3673872238    0.1126871742         -0.0056
N1154      N    0.7781725108    0.3372954186    0.1213558826         -0.0056
N1155      N    0.7880846399    0.3770723454    0.1265513114         -0.0056
N1156      N    0.8829871761    0.3618192039    0.0787977828         -0.0056
N1157      N    0.7939655216    0.3743147355    0.2116415811         -0.0056
N1158      N    0.7150068565    0.3018343648    0.0276830732         -0.0056
N1159      N    0.7743514502    0.4506799672    0.0396677046         -0.0056
C1160      C    0.7851918009    0.4103743239    0.1100888333         -0.0056
C1161      C    0.7995732481    0.4210275447    0.0966296248         -0.0056
C1162      C    0.7919805148    0.4324713777    0.0789395169         -0.0056
C1163      C    0.7698315087    0.4336064190    0.0746119422         -0.0056
C1164      C    0.7554410835    0.4234596510    0.0885505842         -0.0056
C1165      C    0.7630968483    0.4118943315    0.1061465359         -0.0056
C1166      C    0.8476723487    0.3505711472    0.0679188699         -0.0056
C1167      C    0.8356369384    0.3376909454    0.0544315249         -0.0056
C1168      C    0.8134137651    0.3400534649    0.0525295158         -0.0056
C1169      C    0.8028590835    0.3553079540    0.0641580025         -0.0056
C1170      C    0.8147202305    0.3675631019    0.0784260019         -0.0056
C1171      C    0.8369453113    0.3652456248    0.0803668973         -0.0056
H1172      H    0.7828555445    0.3581267205    0.0239537652         -0.0056
H1173      H    0.7448060950    0.3658735166    0.0169696411         -0.0056
H1174      H    0.7080600788    0.3735210363    0.0319862404         -0.0056
H1175      H    0.6841500354    0.3784250867    0.0641606603         -0.0056
H1176      H    0.6790787456    0.3794678041    0.1057987738         -0.0056
H1177      H    0.6948180358    0.3760947452    0.1434608671         -0.0056
H1178      H    0.8788582904    0.3381867235    0.0571072961         -0.0056
H1179      H    0.7350436046    0.3354038772    0.1530218156         -0.0056
H1180      H    0.7582516254    0.3313278777    0.1856456159         -0.0056
H1181      H    0.7659989807    0.3951589972    0.1894391498         -0.0056
H1182      H    0.7424709675    0.3990611678    0.1570756920         -0.0056
H1183      H    0.7848316711    0.3446514860    0.2110671067         -0.0056
H1184      H    0.7824552733    0.2874577593    0.1243201266         -0.0056
H1185      H    0.8061778956    0.2966651906    0.1555897885         -0.0056
H1186      H    0.8259123447    0.3233967376    0.1766073190         -0.0056
H1187      H    0.8350280074    0.3588100826    0.1810768388         -0.0056
H1188      H    0.8303465613    0.3943543398    0.1689238125         -0.0056
H1189      H    0.8135477580    0.4186096792    0.1435227898         -0.0056
H1190      H    0.7461061414    0.2947963827    0.0183813035         -0.0056
H1191      H    0.7442896814    0.4464690059    0.0536562909         -0.0056
H1192      H    0.8167398108    0.4199010387    0.0993261514         -0.0056
H1193      H    0.8034364033    0.4401894955    0.0684897414         -0.0056
H1194      H    0.7382972137    0.4241578611    0.0855642424         -0.0056
H1195      H    0.7517974071    0.4041807141    0.1166828844         -0.0056
H1196      H    0.8435245462    0.3262047571    0.0447847205         -0.0056
H1197      H    0.8045268230    0.3302853903    0.0415457499         -0.0056
H1198      H    0.8069761968    0.3796477440    0.0870511515         -0.0056
H1199      H    0.8457702474    0.3754229609    0.0909258632         -0.0056
C1200      C    0.7638912381    0.3130729003    0.0948827344         -0.0056
C1201      C    0.7427014293    0.3187943713    0.0906031303         -0.0056
C1202      C    0.7333420874    0.3147160295    0.0699120819         -0.0056
C1203      C    0.7451138631    0.3051044401    0.0530167654         -0.0056
C1204      C    0.7665271685    0.2995597203    0.0567578023         -0.0056
C1205      C    0.7761865296    0.3030475040    0.0771935340         -0.0056
H1206      H    0.7333760073    0.3262893374    0.1032813689         -0.0056
H1207      H    0.7168652507    0.3192094205    0.0670610351         -0.0056
H1208      H    0.7757657637    0.2922834045    0.0438377521         -0.0056
H1209      H    0.7927510089    0.2987426469    0.0798449437         -0.0056
C1210      C    0.5947617662    0.1726037427    0.9257130387         -0.0056
C1211      C    0.6017419212    0.1900851483    0.9149938754         -0.0056
C1212      C    0.6235221929    0.1926448674    0.9098913546         -0.0056
C1213      C    0.6384283746    0.1779197250    0.9156838815         -0.0056
C1214      C    0.6605236007    0.1800282046    0.9113611679         -0.0056
C1215      C    0.6750857620    0.1651520733    0.9179330910         -0.0056
C1216      C    0.6677493090    0.1480985873    0.9291176665         -0.0056
C1217      C    0.6817045384    0.1329384137    0.9362652079         -0.0056
C1218      C    0.6735409571    0.1163025807    0.9476496929         -0.0056
C1219      C    0.6514383002    0.1151214890    0.9520223653         -0.0056
C1220      C    0.6457139971    0.1460524323    0.9335001601         -0.0056
C1221      C    0.6309443904    0.1607334485    0.9264685510         -0.0056
C1222      C    0.5031886876    0.1650941932    0.9343843549         -0.0056
C1223      C    0.6419272747    0.0981483156    0.9636182890         -0.0056
C1224      C    0.6364264385    0.0999164673    0.9860811579         -0.0056
C1225      C    0.6237914792    0.0853595727    0.9962316176         -0.0056
C1226      C    0.6161925934    0.0690697711    0.9839072062         -0.0056
C1227      C    0.6226089776    0.0668775281    0.9616304351         -0.0056
C1228      C    0.6354493626    0.0813500849    0.9515682343         -0.0056
C1229      C    0.5994334524    0.0562830748    0.9936474231         -0.0056
C1230      C    0.5985262410    0.1478444455    0.9931203902         -0.0056
C1231      C    0.5877420105    0.1440580241    0.0131992740         -0.0056
C1232      C    0.5752986471    0.1267651620    0.0154462346         -0.0056
C1233      C    0.5728055271    0.1138314680    0.9973239764         -0.0056
C1234      C    0.5590182816    0.0972889984    0.9980953731         -0.0056
C1235      C    0.5557316888    0.0855872148    0.9790592227         -0.0056
C1236      C    0.5664106234    0.0901234924    0.9591080633         -0.0056
C1237      C    0.5629064055    0.0792765050    0.9395449242         -0.0056
C1238      C    0.5730887092    0.0849783779    0.9197661643         -0.0056
C1239      C    0.5871909684    0.1013325294    0.9196930424         -0.0056
C1240      C    0.5807106389    0.1062945725    0.9584282295         -0.0056
C1241      C    0.5839166871    0.1181227856    0.9775838145         -0.0056
C1242      C    0.6327528811    0.2256575157    0.9735368643         -0.0056
C1243      C    0.6204530695    0.1382325254    0.8407031214         -0.0056
Cu1244    Cu    0.6082219206    0.1337346134    0.9470360640             1.0
N1245      N    0.6095308300    0.1583709227    0.9307842037         -0.0056
N1246      N    0.6384375462    0.1299870787    0.9449018075         -0.0056
N1247      N    0.5970150685    0.1343181276    0.9764504182         -0.0056
N1248      N    0.5908319146    0.1111960567    0.9390797034         -0.0056
N1249      N    0.4931273196    0.1496134077    0.9266896071         -0.0056
N1250      N    0.5880405061    0.0446491795    0.9810368503         -0.0056
N1251      N    0.6531721851    0.2291713357    0.9713651602         -0.0056
N1252      N    0.6075832643    0.1470443829    0.8268292283         -0.0056
C1253      C    0.5959918007    0.1090880295    0.8987333368         -0.0056
C1254      C    0.5820801830    0.1138649921    0.8811731370         -0.0056
C1255      C    0.5899571446    0.1231228338    0.8620780613         -0.0056
C1256      C    0.6119462600    0.1275334502    0.8601681063         -0.0056
C1257      C    0.6259298395    0.1221438246    0.8774520958         -0.0056
C1258      C    0.6179757990    0.1130122913    0.8966197632         -0.0056
C1259      C    0.5268881250    0.1658163567    0.9346757539         -0.0056
C1260      C    0.5372209276    0.1832564804    0.9417751149         -0.0056
C1261      C    0.5594857546    0.1851846132    0.9397860818         -0.0056
C1262      C    0.5717858956    0.1696579404    0.9307263810         -0.0056
C1263      C    0.5616021954    0.1518992053    0.9246161921         -0.0056
C1264      C    0.5393409277    0.1499193739    0.9265787657         -0.0056
H1265      H    0.5903916339    0.2015723760    0.9103568915         -0.0056
H1266      H    0.6286919765    0.2061209911    0.9015665005         -0.0056
H1267      H    0.6665405881    0.1931953172    0.9030309871         -0.0056
H1268      H    0.6920324419    0.1670675082    0.9144710401         -0.0056
H1269      H    0.6987924692    0.1339410600    0.9330810484         -0.0056
H1270      H    0.6842860452    0.1045859973    0.9530506399         -0.0056
H1271      H    0.4943249557    0.1779712321    0.9401459216         -0.0056
H1272      H    0.6410313015    0.1130309547    0.9954179764         -0.0056
H1273      H    0.6188294769    0.0874843010    0.0133265580         -0.0056
H1274      H    0.6168559335    0.0545340928    0.9516942945         -0.0056
H1275      H    0.6393713159    0.0799763289    0.9340958860         -0.0056
H1276      H    0.5945145889    0.0593959866    0.0105360414         -0.0056
H1277      H    0.5884971134    0.1546474294    0.0267566048         -0.0056
H1278      H    0.5668944061    0.1240167182    0.0309032709         -0.0056
H1279      H    0.5504009168    0.0937034742    0.0132160546         -0.0056
H1280      H    0.5446002919    0.0732217314    0.9798563974         -0.0056
H1281      H    0.5519054293    0.0667873843    0.9394003147         -0.0056
H1282      H    0.5697737490    0.0768757073    0.9045896113         -0.0056
H1283      H    0.6212225824    0.2376718212    0.9722678633         -0.0056
H1284      H    0.6376958562    0.1399443242    0.8391452945         -0.0056
H1285      H    0.5649903579    0.1110812799    0.8825911856         -0.0056
H1286      H    0.5788187529    0.1270668741    0.8489738667         -0.0056
H1287      H    0.6429482637    0.1253530102    0.8763205596         -0.0056
H1288      H    0.6289621465    0.1089869541    0.9097511389         -0.0056
H1289      H    0.5279841698    0.1956575409    0.9481859000         -0.0056
H1290      H    0.5670531128    0.1989928910    0.9448056855         -0.0056
H1291      H    0.5707087160    0.1400220487    0.9171321197         -0.0056
H1292      H    0.5318546806    0.1362632659    0.9209613476         -0.0056
C1293      C    0.6080857081    0.1674270662    0.9888252089         -0.0056
C1294      C    0.6295234176    0.1696207328    0.9823601876         -0.0056
C1295      C    0.6376826435    0.1885300705    0.9772797687         -0.0056
C1296      C    0.6244603011    0.2055463609    0.9782569608         -0.0056
C1297      C    0.6027945757    0.2036827629    0.9842848935         -0.0056
C1298      C    0.5942748835    0.1852275043    0.9898126364         -0.0056
H1299      H    0.6399600729    0.1567549706    0.9813754193         -0.0056
H1300      H    0.6543746678    0.1898376356    0.9724304401         -0.0056
H1301      H    0.5924541554    0.2166452448    0.9849463294         -0.0056
H1302      H    0.5775043428    0.1839852690    0.9943783263         -0.0056
C1303      C    0.5947117865    0.8246025788    0.0936700474         -0.0056
C1304      C    0.6016905223    0.8071211653    0.1043902072         -0.0056
C1305      C    0.6234706052    0.8045600295    0.1094926560         -0.0056
C1306      C    0.6383779996    0.8192837462    0.1036990715         -0.0056
C1307      C    0.6604730708    0.8171737874    0.1080216821         -0.0056
C1308      C    0.6750364534    0.8320484810    0.1014486958         -0.0056
C1309      C    0.6677013810    0.8491019794    0.0902631538         -0.0056
C1310      C    0.6816578526    0.8642607335    0.0831145382         -0.0056
C1311      C    0.6734956155    0.8808966323    0.0717291209         -0.0056
C1312      C    0.6513930350    0.8820792013    0.0673566082         -0.0056
C1313      C    0.6456662185    0.8511496060    0.0858807664         -0.0056
C1314      C    0.6308954094    0.8364700658    0.0929134289         -0.0056
C1315      C    0.5031392959    0.8321187127    0.0849992330         -0.0056
C1316      C    0.6418833810    0.8990525333    0.0557597458         -0.0056
C1317      C    0.6363822746    0.8972836995    0.0332970428         -0.0056
C1318      C    0.6237484906    0.9118410628    0.0231458250         -0.0056
C1319      C    0.6161510473    0.9281320513    0.0354693193         -0.0056
C1320      C    0.6225677364    0.9303248971    0.0577458889         -0.0056
C1321      C    0.6354069528    0.9158518516    0.0678088405         -0.0056
C1322      C    0.5993929341    0.9409195522    0.0257284958         -0.0056
C1323      C    0.5984779904    0.8493582772    0.0262611413         -0.0056
C1324      C    0.5876939718    0.8531445381    0.0061821391         -0.0056
C1325      C    0.5752520573    0.8704382424    0.0039342509         -0.0056
C1326      C    0.5727601274    0.8833730172    0.0220557438         -0.0056
C1327      C    0.5589742753    0.8999165043    0.0212834794         -0.0056
C1328      C    0.5556887735    0.9116194743    0.0403189483         -0.0056
C1329      C    0.5663674321    0.9070833590    0.0602702731         -0.0056
C1330      C    0.5628642359    0.9179315754    0.0798327852         -0.0056
C1331      C    0.5730461642    0.9122298943    0.0996117872         -0.0056
C1332      C    0.5871470422    0.8958746670    0.0996857617         -0.0056
C1333      C    0.5806660851    0.8909112177    0.0609509464         -0.0056
C1334      C    0.5838710310    0.8790818185    0.0417960516         -0.0056
C1335      C    0.6326981620    0.7715435490    0.0458490697         -0.0056
C1336      C    0.6204064508    0.8589760040    0.1786775915         -0.0056
Cu1337    Cu    0.6081751098    0.8634696303    0.0723445022             1.0
N1338      N    0.6094820254    0.8388340190    0.0885978564         -0.0056
N1339      N    0.6383910635    0.8672149566    0.0744782122         -0.0056
N1340      N    0.5969680503    0.8628855294    0.0429303014         -0.0056
N1341      N    0.5907870508    0.8860099089    0.0802996661         -0.0056
N1342      N    0.4930792772    0.8476006463    0.0926931390         -0.0056
N1343      N    0.5880010385    0.9525549389    0.0383384763         -0.0056
N1344      N    0.6531171808    0.7680282725    0.0480207744         -0.0056
N1345      N    0.6075359758    0.8501658131    0.1925521589         -0.0056
C1346      C    0.5959473320    0.8881195225    0.1206458496         -0.0056
C1347      C    0.5820354053    0.8833444873    0.1382064877         -0.0056
C1348      C    0.5899116875    0.8740869804    0.1573020472         -0.0056
C1349      C    0.6119004404    0.8696747744    0.1592120412         -0.0056
C1350      C    0.6258843823    0.8750624807    0.1419275752         -0.0056
C1351      C    0.6179310101    0.8841936815    0.1227594324         -0.0056
C1352      C    0.5268386708    0.8313947206    0.0847076294         -0.0056
C1353      C    0.5371699617    0.8139534573    0.0776092272         -0.0056
C1354      C    0.5594346365    0.8120237177    0.0795981445         -0.0056
C1355      C    0.5717361379    0.8275498937    0.0886567661         -0.0056
C1356      C    0.5615539708    0.8453097084    0.0947659750         -0.0056
C1357      C    0.5392928599    0.8472911477    0.0928035140         -0.0056
H1358      H    0.5903392896    0.7956350343    0.1090280132         -0.0056
H1359      H    0.6286392950    0.7910839189    0.1178182805         -0.0056
H1360      H    0.6664889906    0.8040066233    0.1163526055         -0.0056
H1361      H    0.6919829901    0.8301319188    0.1049106860         -0.0056
H1362      H    0.6987457158    0.8632569354    0.0862985796         -0.0056
H1363      H    0.6842416644    0.8926121278    0.0663273442         -0.0056
H1364      H    0.4942744453    0.8192420694    0.0792385474         -0.0056
H1365      H    0.6409859794    0.8841684011    0.0239609785         -0.0056
H1366      H    0.6187862168    0.9097158748    0.0060510668         -0.0056
H1367      H    0.6168157886    0.9426692608    0.0676813345         -0.0056
H1368      H    0.6393291162    0.9172261654    0.0852810635         -0.0056
H1369      H    0.5944737168    0.9378061876    0.0088401197         -0.0056
H1370      H    0.5884481072    0.8425544093    0.9926254484         -0.0056
H1371      H    0.5668479653    0.8731865704    0.9884771347         -0.0056
H1372      H    0.5503571321    0.9035019456    0.0061626690         -0.0056
H1373      H    0.5445584170    0.9239857707    0.0395211337         -0.0056
H1374      H    0.5518643156    0.9304215453    0.0799767459         -0.0056
H1375      H    0.5697319702    0.9203335640    0.1147878790         -0.0056
H1376      H    0.6211668552    0.7595301886    0.0471189269         -0.0056
H1377      H    0.6376491011    0.8572629617    0.1802353422         -0.0056
H1378      H    0.5649458077    0.8861294381    0.1367884481         -0.0056
H1379      H    0.5787730331    0.8701444363    0.1704066001         -0.0056
H1380      H    0.6429025414    0.8718520479    0.1430591290         -0.0056
H1381      H    0.6289176270    0.8882175328    0.1096276951         -0.0056
H1382      H    0.5279321218    0.8015527891    0.0711992980         -0.0056
H1383      H    0.5670008011    0.7982146142    0.0745793063         -0.0056
H1384      H    0.5706615351    0.8571865354    0.1022492251         -0.0056
H1385      H    0.5318077967    0.8609481046    0.0984201751         -0.0056
C1386      C    0.6080358262    0.8297751357    0.0305574206         -0.0056
C1387      C    0.6294733851    0.8275801455    0.0370223511         -0.0056
C1388      C    0.6376310408    0.8086704328    0.0421038415         -0.0056
C1389      C    0.6244072557    0.7916551067    0.0411278296         -0.0056
C1390      C    0.6027416553    0.7935200673    0.0351000103         -0.0056
C1391      C    0.5942234925    0.8119757065    0.0295712274         -0.0056
H1392      H    0.6399111326    0.8404451570    0.0380062225         -0.0056
H1393      H    0.6543229806    0.8073618280    0.0469530749         -0.0056
H1394      H    0.5924001364    0.7805583445    0.0344394762         -0.0056
H1395      H    0.5774530322    0.8132190015    0.0250056375         -0.0056
C1396      C    0.7800074729    0.6375744255    0.9595413991         -0.0056
C1397      C    0.7722254519    0.6366189668    0.9814932608         -0.0056
C1398      C    0.7505957328    0.6321171993    0.9854861987         -0.0056
C1399      C    0.7366177717    0.6287927228    0.9676351209         -0.0056
C1400      C    0.7146698745    0.6246766009    0.9708068916         -0.0056
C1401      C    0.7010062444    0.6219255031    0.9524586888         -0.0056
C1402      C    0.7090852001    0.6234735006    0.9307277276         -0.0056
C1403      C    0.6960187769    0.6210929523    0.9118567325         -0.0056
C1404      C    0.7048780697    0.6230540581    0.8904795791         -0.0056
C1405      C    0.7267573756    0.6276377098    0.8882004531         -0.0056
C1406      C    0.7309654114    0.6276611569    0.9275871983         -0.0056
C1407      C    0.7448747998    0.6299740437    0.9459651394         -0.0056
C1408      C    0.8713497237    0.6478816694    0.9519074237         -0.0056
C1409      C    0.7369743462    0.6297123116    0.8664480366         -0.0056
C1410      C    0.7411532698    0.6487253200    0.8579784917         -0.0056
C1411      C    0.7543646071    0.6510047030    0.8394136435         -0.0056
C1412      C    0.7638576954    0.6343128560    0.8293780610         -0.0056
C1413      C    0.7587909686    0.6151827007    0.8373042875         -0.0056
C1414      C    0.7453771746    0.6129188344    0.8557362867         -0.0056
C1415      C    0.7810572402    0.6373942210    0.8129232452         -0.0056
C1416      C    0.7747397910    0.6792445354    0.9036000290         -0.0056
C1417      C    0.7847430504    0.6942084728    0.8909750766         -0.0056
C1418      C    0.7983880436    0.6889554052    0.8733759026         -0.0056
C1419      C    0.8028299680    0.6688353886    0.8691368298         -0.0056
C1420      C    0.8178300471    0.6628613006    0.8530204811         -0.0056
C1421      C    0.8230118148    0.6426453586    0.8504555533         -0.0056
C1422      C    0.8130474658    0.6281360726    0.8637657986         -0.0056
C1423      C    0.8184054904    0.6079132918    0.8622988501         -0.0056
C1424      C    0.8088345563    0.5941151345    0.8767003439         -0.0056
C1425      C    0.7934996345    0.6005314923    0.8922930004         -0.0056
C1426      C    0.7975614066    0.6339728258    0.8794515776         -0.0056
C1427      C    0.7924436792    0.6543476631    0.8820891443         -0.0056
C1428      C    0.7355052255    0.6970232167    0.9881017397         -0.0056
C1429      C    0.7615301680    0.5524958444    0.9640644332         -0.0056
Cu1430    Cu    0.7685793546    0.6355265717    0.9106934462             1.0
N1431      N    0.7661643186    0.6339161015    0.9425174713         -0.0056
N1432      N    0.7388951881    0.6298318971    0.9067283459         -0.0056
N1433      N    0.7781757832    0.6599271088    0.8980597757         -0.0056
N1434      N    0.7880924053    0.6201509904    0.8928653902         -0.0056
N1435      N    0.8829921677    0.6354135354    0.9406204757         -0.0056
N1436      N    0.7939749369    0.6229076787    0.8077751784         -0.0056
N1437      N    0.7150040798    0.6953840469    0.9917305777         -0.0056
N1438      N    0.7743653151    0.5465436106    0.9797502918         -0.0056
C1439      C    0.7852028502    0.5868490315    0.9093285200         -0.0056
C1440      C    0.7995851598    0.5761973421    0.9227882404         -0.0056
C1441      C    0.7919932788    0.5647531243    0.9404784414         -0.0056
C1442      C    0.7698442984    0.5636161526    0.9448056012         -0.0056
C1443      C    0.7554530774    0.5737613804    0.9308664578         -0.0056
C1444      C    0.7631079744    0.5853270919    0.9132704116         -0.0056
C1445      C    0.8476758538    0.6466585822    0.9514984489         -0.0056
C1446      C    0.8356387178    0.6595379253    0.9649852810         -0.0056
C1447      C    0.8134157607    0.6571734274    0.9668868999         -0.0056
C1448      C    0.8028630234    0.6419177845    0.9552585287         -0.0056
C1449      C    0.8147258454    0.6296634663    0.9409910254         -0.0056
C1450      C    0.8369507158    0.6319829214    0.9390505213         -0.0056
H1451      H    0.7828588716    0.6390978948    0.9954624294         -0.0056
H1452      H    0.7448101138    0.6313477750    0.0024459640         -0.0056
H1453      H    0.7080652835    0.6236966736    0.9874287990         -0.0056
H1454      H    0.6841565179    0.6187899099    0.9552540095         -0.0056
H1455      H    0.6790862986    0.6177460223    0.9136158176         -0.0056
H1456      H    0.6948260823    0.6211198620    0.8759539645         -0.0056
H1457      H    0.8788601854    0.6590460126    0.9623103773         -0.0056
H1458      H    0.7350473961    0.6618142064    0.8663929473         -0.0056
H1459      H    0.7582557174    0.6658917486    0.8337695204         -0.0056
H1460      H    0.7660101784    0.6020612658    0.8299774990         -0.0056
H1461      H    0.7424818516    0.5981575190    0.8623405734         -0.0056
H1462      H    0.7848378115    0.6525701114    0.8083488402         -0.0056
H1463      H    0.7824531336    0.7097651047    0.8950945555         -0.0056
H1464      H    0.8061774860    0.7005592859    0.8638255600         -0.0056
H1465      H    0.8259153568    0.6738291658    0.8428089899         -0.0056
H1466      H    0.8350350160    0.6384165694    0.8383404048         -0.0056
H1467      H    0.8303571993    0.6028720965    0.8504940950         -0.0056
H1468      H    0.8135604802    0.5786156710    0.8758953011         -0.0056
H1469      H    0.7461023771    0.7024250021    0.0010328142         -0.0056
H1470      H    0.7443034045    0.5507516126    0.9657610199         -0.0056
H1471      H    0.8167516605    0.5773253554    0.9200920302         -0.0056
H1472      H    0.8034497761    0.5570362217    0.9509286083         -0.0056
H1473      H    0.7383092160    0.5730616698    0.9338524746         -0.0056
H1474      H    0.7518079269    0.5930395068    0.9027336750         -0.0056
H1475      H    0.8435248411    0.6710249921    0.9746319972         -0.0056
H1476      H    0.8045274925    0.6669408854    0.9778702815         -0.0056
H1477      H    0.8069833385    0.6175779762    0.9323659795         -0.0056
H1478      H    0.8457770133    0.6218062035    0.9284919470         -0.0056
C1479      C    0.7638912394    0.6841487869    0.9245321249         -0.0056
C1480      C    0.7427019615    0.6784254716    0.9288114308         -0.0056
C1481      C    0.7333416963    0.6825033199    0.9495022068         -0.0056
C1482      C    0.7451120273    0.6921162632    0.9663975521         -0.0056
C1483      C    0.7665248088    0.6976628568    0.9626568216         -0.0056
C1484      C    0.7761850224    0.6941755980    0.9422213557         -0.0056
H1485      H    0.7333776548    0.6709294451    0.9161331668         -0.0056
H1486      H    0.7168652884    0.6780084867    0.9523530225         -0.0056
H1487      H    0.7757623073    0.7049402292    0.9755769001         -0.0056
H1488      H    0.7927490891    0.6984819087    0.9395701827         -0.0056
C2853      C    0.6778564713    0.7389867294    0.0255172850         -0.0056
C2854      C    0.6456987337    0.7222282044    0.0146239855         -0.0056
C2855      C    0.7100151603    0.7557487091    0.0364130858         -0.0056
C2856      C    0.6555935797    0.7378688930    0.0256972377         -0.0056
C2857      C    0.6432699288    0.7523348764    0.0369065592         -0.0056
C2858      C    0.6877495733    0.7546294725    0.0365921288         -0.0056
C2859      C    0.6754249710    0.7690920013    0.0477989489         -0.0056
C2860      C    0.6400910120    0.7833159720    0.0598669350         -0.0056
C2861      C    0.6174077977    0.7826932433    0.0604304682         -0.0056
C2862      C    0.6051504218    0.7970811599    0.0715793081         -0.0056
C2863      C    0.6495628399    0.7994503681    0.0713228579         -0.0056
C2864      C    0.6373054639    0.8138382848    0.0824716978         -0.0056
N2865      N    0.6148838613    0.8129073977    0.0827964880         -0.0056
C2866      C    0.6530766196    0.7680748299    0.0480568910         -0.0056
H2867      H    0.6274361849    0.7209918424    0.0145363803         -0.0056
H2868      H    0.6084407008    0.7701781358    0.0516173542         -0.0056
O2869      O    0.5868755078    0.7960011964    0.0716074453         -0.0056
H2870      H    0.7185084974    0.7684558478    0.0453889768         -0.0056
H2871      H    0.6677829017    0.8011027980    0.0717188057         -0.0056
O2872      O    0.6456148781    0.8266156618    0.0915076063         -0.0056
C2873      C    0.6902647893    0.7244255900    0.0142340671         -0.0056
C2874      C    0.7224225269    0.7411841150    0.0251273666         -0.0056
C2875      C    0.6581061003    0.7076636103    0.0033382663         -0.0056
C2876      C    0.7125276809    0.7255434264    0.0140541144         -0.0056
C2877      C    0.7248513318    0.7110774430    0.0028447929         -0.0056
C2878      C    0.6803716873    0.7087828469    0.0031592233         -0.0056
C2879      C    0.6926980337    0.6943182637    0.9919508116         -0.0056
C2880      C    0.7280275532    0.6800949471    0.9798835073         -0.0056
C2881      C    0.7507134628    0.6807190761    0.9793208839         -0.0056
C2882      C    0.7629708388    0.6663311595    0.9681720440         -0.0056
C2883      C    0.7185601647    0.6639598969    0.9684269026         -0.0056
C2884      C    0.7308175407    0.6495719802    0.9572780627         -0.0056
N2885      N    0.7532373993    0.6505049217    0.9569548641         -0.0056
C2886      C    0.7150446410    0.6953374895    0.9916944611         -0.0056
H2887      H    0.7406974409    0.7422640785    0.0250992294         -0.0056
H2888      H    0.7596788158    0.6932362380    0.9881355895         -0.0056
O2889      O    0.7812457527    0.6674111230    0.9681439068         -0.0056
H2890      H    0.6497966861    0.6948862332    0.9943023578         -0.0056
H2891      H    0.7003391516    0.6623040124    0.9680284534         -0.0056
O2892      O    0.7225081265    0.6367946032    0.9482421541         -0.0056
H2893      H    0.6249950149    0.7512549129    0.0369346964         -0.0056
H2894      H    0.6837316897    0.7818679781    0.0568339476         -0.0056
H2895      H    0.7431262457    0.7121574065    0.0028166557         -0.0056
H2896      H    0.6843913150    0.6815422869    0.9829158129         -0.0056
C2809      C    0.5880159275    0.9893743853    0.0154304847         -0.0056
C2810      C    0.5638905550    0.0028409843    0.0423861208         -0.0056
C2811      C    0.6121433223    0.9759040598    0.9884742037         -0.0056
C2812      C    0.5759503962    0.9869049142    0.0346327166         -0.0056
C2813      C    0.5759426304    0.9685707699    0.0460402046         -0.0056
C2814      C    0.6000757707    0.9734357124    0.0076786952         -0.0056
C2815      C    0.6000659826    0.9551052946    0.0190868282         -0.0056
C2816      C    0.5879915410    0.9331914457    0.0503883217         -0.0056
C2817      C    0.5759265039    0.9300947214    0.0699797173         -0.0056
C2818      C    0.5759186602    0.9118594801    0.0813258434         -0.0056
C2819      C    0.6000498562    0.9166292461    0.0430263408         -0.0056
C2820      C    0.6000420125    0.8983940048    0.0543724670         -0.0056
N2821      N    0.5879766677    0.8956876871    0.0737216445         -0.0056
C2822      C    0.5880005518    0.9525082907    0.0383681846         -0.0056
H2823      H    0.5538517917    0.0011744854    0.0581214955         -0.0056
H2824      H    0.5657311269    0.9426704792    0.0770917317         -0.0056
O2825      O    0.5659426362    0.9100149961    0.0970799824         -0.0056
H2826      H    0.6221773861    0.9630330003    0.9817819494         -0.0056
H2827      H    0.6102505397    0.9178206444    0.0273491827         -0.0056
O2828      O    0.6100115445    0.8854131534    0.0478429494         -0.0056
C2829      C    0.5880256171    0.0078297332    0.0039448419         -0.0056
C2830      C    0.6121509896    0.9943631341    0.9769892058         -0.0056
C2831      C    0.5638982224    0.0213000587    0.0309011229         -0.0056
C2832      C    0.6000911485    0.0102992042    0.9847426100         -0.0056
C2833      C    0.6000989143    0.0286333485    0.9733351220         -0.0056
C2834      C    0.5759657739    0.0237684060    0.0116966314         -0.0056
C2835      C    0.5759755599    0.0421014265    0.0002868837         -0.0056
C2836      C    0.5880479834    0.0640137965    0.9689892645         -0.0056
C2837      C    0.6001150407    0.0671093970    0.9493956093         -0.0056
C2838      C    0.6001228845    0.0853446383    0.9380494832         -0.0056
C2839      C    0.5759916864    0.0805774750    0.9763473710         -0.0056
C2840      C    0.5759995301    0.0988127163    0.9650012449         -0.0056
N2841      N    0.5880648769    0.1015164313    0.9456536821         -0.0056
C2842      C    0.5880409928    0.0446958277    0.9810071420         -0.0056
H2843      H    0.6221270136    0.9962076182    0.9612350669         -0.0056
H2844      H    0.6103104198    0.0545310365    0.9422852097         -0.0056
O2845      O    0.6100989085    0.0871891223    0.9222953442         -0.0056
H2846      H    0.5539286904    0.0342809101    0.0374306405         -0.0056
H2847      H    0.5657889806    0.0793898032    0.9920251739         -0.0056
O2848      O    0.5660299981    0.1117935677    0.9715307624         -0.0056
H2849      H    0.5659666064    0.9667262859    0.0617943436         -0.0056
H2850      H    0.6100334944    0.9421255669    0.0125595703         -0.0056
H2851      H    0.6100749383    0.0304778326    0.9575809830         -0.0056
H2852      H    0.5660080481    0.0550811542    0.0068141415         -0.0056
C2765      C    0.7743590259    0.5078305953    0.0039484561         -0.0056
C2766      C    0.7556561798    0.5230030035    0.0341865088         -0.0056
C2767      C    0.7930634410    0.4926595088    0.9737062460         -0.0056
C2768      C    0.7650097840    0.5246083698    0.0133206896         -0.0056
C2769      C    0.7650125037    0.5429226888    0.0018735862         -0.0056
C2770      C    0.7837126329    0.5094385577    0.9830810090         -0.0056
C2771      C    0.7837137836    0.5277515550    0.9716380631         -0.0056
C2772      C    0.7743669035    0.5639534814    0.9688706179         -0.0056
C2773      C    0.7650183436    0.5813569294    0.9778505321         -0.0056
C2774      C    0.7650209557    0.5995725945    0.9664652882         -0.0056
C2775      C    0.7837196235    0.5661857956    0.9476150091         -0.0056
C2776      C    0.7837222357    0.5844014607    0.9362297651         -0.0056
N2777      N    0.7743732513    0.6014154853    0.9454538614         -0.0056
C2778      C    0.7743646803    0.5446565411    0.9809305304         -0.0056
H2779      H    0.7478772386    0.5365749116    0.0422268887         -0.0056
H2780      H    0.7571112437    0.5808949135    0.9949303423         -0.0056
O2781      O    0.7572907204    0.6132477841    0.9743377163         -0.0056
H2782      H    0.8008456687    0.4936077094    0.9565878793         -0.0056
H2783      H    0.7916242744    0.5528961648    0.9391313331         -0.0056
O2784      O    0.7914545056    0.5855358274    0.9191011851         -0.0056
C2785      C    0.7743577394    0.4893929825    0.0154695403         -0.0056
C2786      C    0.7930605855    0.4742205743    0.9852314876         -0.0056
C2787      C    0.7556533243    0.5045640690    0.0457117505         -0.0056
C2788      C    0.7837069813    0.4726152080    0.0060973069         -0.0056
C2789      C    0.7837042616    0.4543008890    0.0175444102         -0.0056
C2790      C    0.7650041324    0.4877850201    0.0363369874         -0.0056
C2791      C    0.7650029788    0.4694694266    0.0477815612         -0.0056
C2792      C    0.7743482956    0.4332713708    0.0505499082         -0.0056
C2793      C    0.7836984217    0.4158666484    0.0415674643         -0.0056
C2794      C    0.7836958096    0.3976509833    0.0529527083         -0.0056
C2795      C    0.7649971389    0.4310351860    0.0718046153         -0.0056
C2796      C    0.7649945268    0.4128195209    0.0831898592         -0.0056
N2797      N    0.7743435140    0.3958080924    0.0739641350         -0.0056
C2798      C    0.7743520849    0.4525670366    0.0384874660         -0.0056
H2799      H    0.8007908208    0.4605453847    0.9773590595         -0.0056
H2800      H    0.7916055244    0.4163312604    0.0244860263         -0.0056
O2801      O    0.7914260449    0.3839757937    0.0450802801         -0.0056
H2802      H    0.7479210544    0.5034297022    0.0628403305         -0.0056
H2803      H    0.7570909191    0.4443234951    0.0802924487         -0.0056
O2804      O    0.7572622569    0.4116851542    0.1003184392         -0.0056
H2805      H    0.7572822683    0.5565978784    0.0097460143         -0.0056
H2806      H    0.7914444874    0.5288871962    0.9545120127         -0.0056
H2807      H    0.7914344970    0.4406256994    0.0096719821         -0.0056
H2808      H    0.7572722751    0.4683337854    0.0649076116         -0.0056
C2721      C    0.6778927771    0.2582195019    0.9938783230         -0.0056
C2722      C    0.7067441359    0.2529874449    0.9683743826         -0.0056
C2723      C    0.6490372543    0.2634499481    0.0193828139         -0.0056
C2724      C    0.6861368057    0.2483410869    0.9754985736         -0.0056
C2725      C    0.6738231843    0.2338712783    0.9642837436         -0.0056
C2726      C    0.6572836963    0.2535710919    0.0010009264         -0.0056
C2727      C    0.6449742388    0.2391028941    0.9897855460         -0.0056
C2728      C    0.6401595417    0.2138780006    0.9595109041         -0.0056
C2729      C    0.6479816693    0.2035050397    0.9407485321         -0.0056
C2730      C    0.6357345717    0.1891132093    0.9295940327         -0.0056
C2731      C    0.6191327238    0.2087366555    0.9662503345         -0.0056
C2732      C    0.6068856263    0.1943448251    0.9550958351         -0.0056
N2733      N    0.6149703478    0.1842796729    0.9365716100         -0.0056
C2734      C    0.6531324867    0.2291239283    0.9713280020         -0.0056
H2735      H    0.7138641579    0.2450746370    0.9533192618         -0.0056
H2736      H    0.6648006103    0.2067257107    0.9341778502         -0.0056
O2737      O    0.6426834964    0.1811012159    0.9145178708         -0.0056
H2738      H    0.6321522860    0.2598902754    0.0255474808         -0.0056
H2739      H    0.6115605436    0.2163810561    0.9812415273         -0.0056
O2740      O    0.5899798490    0.1906561182    0.9611031765         -0.0056
C2741      C    0.6902862646    0.2727861985    0.0051699104         -0.0056
C2742      C    0.6614349058    0.2780182555    0.0306738508         -0.0056
C2743      C    0.7191417873    0.2675557523    0.9796654195         -0.0056
C2744      C    0.6820422360    0.2826646135    0.0235496598         -0.0056
C2745      C    0.6943558574    0.2971344221    0.0347644898         -0.0056
C2746      C    0.7108953454    0.2774346085    0.9980473070         -0.0056
C2747      C    0.7232065535    0.2919048583    0.0092642750         -0.0056
C2748      C    0.7280219132    0.3171272586    0.0395351913         -0.0056
C2749      C    0.7201973724    0.3275006607    0.0582997012         -0.0056
C2750      C    0.7324444699    0.3418924911    0.0694542007         -0.0056
C2751      C    0.7490480685    0.3222710969    0.0327994865         -0.0056
C2752      C    0.7612951660    0.3366629274    0.0439539860         -0.0056
N2753      N    0.7532086938    0.3467260276    0.0624766234         -0.0056
C2754      C    0.7150465550    0.3018817721    0.0277202314         -0.0056
H2755      H    0.6544859811    0.2860302489    0.0457500127         -0.0056
H2756      H    0.7033766807    0.3242779377    0.0648687956         -0.0056
O2757      O    0.7254955452    0.3499044845    0.0845303626         -0.0056
H2758      H    0.7360475645    0.2712444592    0.9736580781         -0.0056
H2759      H    0.7566244127    0.3146283072    0.0178077434         -0.0056
O2760      O    0.7782009433    0.3403516342    0.0379466445         -0.0056
H2761      H    0.6807721090    0.2258592849    0.9492075818         -0.0056
H2762      H    0.6280708749    0.2354137461    0.9957907494         -0.0056
H2763      H    0.6874069327    0.3051464155    0.0498406516         -0.0056
H2764      H    0.7401099174    0.2955940064    0.0032590716         -0.0056
C2677      C    0.6199768560    0.1373002138    0.7803136637         -0.0056
C2678      C    0.6066276433    0.1042435487    0.7851360863         -0.0056
C2679      C    0.6333263566    0.1703603051    0.7754939578         -0.0056
C2680      C    0.6103560230    0.1230898835    0.7937843022         -0.0056
C2681      C    0.6044848920    0.1277053257    0.8158191814         -0.0056
C2682      C    0.6237044046    0.1561472077    0.7889650048         -0.0056
C2683      C    0.6178329856    0.1607592237    0.8109971673         -0.0056
C2684      C    0.6019849987    0.1514429972    0.8478376055         -0.0056
C2685      C    0.5921638571    0.1373915061    0.8620614463         -0.0056
C2686      C    0.5863243100    0.1419819031    0.8839775634         -0.0056
C2687      C    0.6055119507    0.1704454041    0.8572394322         -0.0056
C2688      C    0.5996724036    0.1750358011    0.8791555492         -0.0056
N2689      N    0.5899759354    0.1608854475    0.8929105919         -0.0056
C2690      C    0.6081714260    0.1465811885    0.8246209465         -0.0056
H2691      H    0.5987470948    0.0923223546    0.7958775717         -0.0056
H2692      H    0.5887250558    0.1216850063    0.8558274761         -0.0056
O2693      O    0.5784327397    0.1301827390    0.8948782769         -0.0056
H2694      H    0.6365526196    0.1859429806    0.7822231579         -0.0056
H2695      H    0.6133590153    0.1826855112    0.8469278118         -0.0056
O2696      O    0.6028163109    0.1905668379    0.8860728403         -0.0056
C2697      C    0.6258881705    0.1326565618    0.7581314858         -0.0056
C2698      C    0.6392373831    0.1657132269    0.7533090631         -0.0056
C2699      C    0.6125386699    0.0995964705    0.7629511917         -0.0056
C2700      C    0.6355090034    0.1468668921    0.7446608473         -0.0056
C2701      C    0.6413801345    0.1422514499    0.7226259680         -0.0056
C2702      C    0.6221606219    0.1138095679    0.7494801446         -0.0056
C2703      C    0.6280328720    0.1091968928    0.7274448569         -0.0056
C2704      C    0.6438789086    0.1185110112    0.6906079525         -0.0056
C2705      C    0.6537011693    0.1325652695    0.6763837032         -0.0056
C2706      C    0.6595407164    0.1279748725    0.6544675861         -0.0056
C2707      C    0.6403539069    0.0995107124    0.6812025920         -0.0056
C2708      C    0.6461934540    0.0949203154    0.6592864749         -0.0056
N2709      N    0.6558890910    0.1090713281    0.6455345575         -0.0056
C2710      C    0.6376936005    0.1233755870    0.7138242030         -0.0056
H2711      H    0.6471289535    0.1775123910    0.7424083496         -0.0056
H2712      H    0.6571391395    0.1482724283    0.6826207987         -0.0056
O2713      O    0.6674322867    0.1397740366    0.6435668726         -0.0056
H2714      H    0.6093947625    0.0840654337    0.7560339006         -0.0056
H2715      H    0.6325065544    0.0872671791    0.6915114956         -0.0056
O2716      O    0.6430495467    0.0793892786    0.6523691839         -0.0056
H2717      H    0.5965933217    0.1159061616    0.8267198949         -0.0056
H2718      H    0.6209757738    0.1762874933    0.8179148669         -0.0056
H2719      H    0.6492717048    0.1540506140    0.7117252545         -0.0056
H2720      H    0.6248900838    0.0936686232    0.7205271573         -0.0056
C2633      C    0.8063788011    0.3645680360    0.2581675729         -0.0056
C2634      C    0.8432029184    0.3704725178    0.2491901970         -0.0056
C2635      C    0.7695507628    0.3586637128    0.2671425808         -0.0056
C2636      C    0.8218390481    0.3698367099    0.2426206568         -0.0056
C2637      C    0.8159611513    0.3744524126    0.2205878052         -0.0056
C2638      C    0.7850140921    0.3639328821    0.2515949082         -0.0056
C2639      C    0.7791401163    0.3685484262    0.2295644246         -0.0056
C2640      C    0.7883674357    0.3787125688    0.1906497432         -0.0056
C2641      C    0.8036255627    0.3841388638    0.1743498250         -0.0056
C2642      C    0.7977795354    0.3887297134    0.1524357040         -0.0056
C2643      C    0.7668045277    0.3782348774    0.1833264444         -0.0056
C2644      C    0.7609585004    0.3828257270    0.1614123235         -0.0056
N2645      N    0.7763424283    0.3881539176    0.1455810787         -0.0056
C2646      C    0.7945592684    0.3738491476    0.2138644085         -0.0056
H2647      H    0.8561908149    0.3747585045    0.2367211360         -0.0056
H2648      H    0.8213986028    0.3849019466    0.1788266495         -0.0056
O2649      O    0.8106257531    0.3930363139    0.1398182462         -0.0056
H2650      H    0.7519001844    0.3580370595    0.2621428151         -0.0056
H2651      H    0.7534459224    0.3740060538    0.1953935975         -0.0056
O2652      O    0.7433595905    0.3822515527    0.1562133797         -0.0056
C2653      C    0.8122930332    0.3599210985    0.2803480320         -0.0056
C2654      C    0.7754689159    0.3540166167    0.2893254079         -0.0056
C2655      C    0.8491210715    0.3658254217    0.2713730241         -0.0056
C2656      C    0.7968327862    0.3546524245    0.2958949481         -0.0056
C2657      C    0.8027106830    0.3500367218    0.3179277997         -0.0056
C2658      C    0.8336577422    0.3605562523    0.2869206967         -0.0056
C2659      C    0.8395325566    0.3559400542    0.3089543047         -0.0056
C2660      C    0.8303074809    0.3457770611    0.3478651052         -0.0056
C2661      C    0.8150462716    0.3403502706    0.3641657799         -0.0056
C2662      C    0.8208922989    0.3357594210    0.3860799009         -0.0056
C2663      C    0.8518681453    0.3462536030    0.3551922850         -0.0056
C2664      C    0.8577141725    0.3416627534    0.3771064059         -0.0056
N2665      N    0.8423294060    0.3363352168    0.3929345261         -0.0056
C2666      C    0.8241125659    0.3506399869    0.3246511964         -0.0056
H2667      H    0.7626226982    0.3497100162    0.3019428657         -0.0056
H2668      H    0.7972723928    0.3395878418    0.3596858309         -0.0056
O2669      O    0.8080460812    0.3314528205    0.3986973587         -0.0056
H2670      H    0.8667199814    0.3663995959    0.2765719678         -0.0056
H2671      H    0.8652306716    0.3504822680    0.3431274999         -0.0056
O2672      O    0.8753130825    0.3422369277    0.3823053496         -0.0056
H2673      H    0.8288073690    0.3787590131    0.2079703474         -0.0056
H2674      H    0.7615442887    0.3679747473    0.2243647244         -0.0056
H2675      H    0.7898644653    0.3457301213    0.3305452575         -0.0056
H2676      H    0.8571283842    0.3565137331    0.3141540049         -0.0056
C2589      C    0.7543875498    0.2390042692    0.4938970012         -0.0056
C2590      C    0.7689900481    0.2498595527    0.5285457245         -0.0056
C2591      C    0.7397855723    0.2281501248    0.4592437846         -0.0056
C2592      C    0.7678730544    0.2516934598    0.5055952723         -0.0056
C2593      C    0.7801956427    0.2661620884    0.4943890360         -0.0056
C2594      C    0.7532723023    0.2408402275    0.4709449547         -0.0056
C2595      C    0.7655943699    0.2553077169    0.4597432118         -0.0056
C2596      C    0.7921493244    0.2833422916    0.4595573853         -0.0056
C2597      C    0.8060556681    0.2965258107    0.4708714334         -0.0056
C2598      C    0.8183119000    0.3109164953    0.4597257800         -0.0056
C2599      C    0.7914543952    0.2856714393    0.4362256091         -0.0056
C2600      C    0.8037106272    0.3000621239    0.4250799557         -0.0056
N2601      N    0.8173550378    0.3129379697    0.4366331468         -0.0056
C2602      C    0.7791654392    0.2680974142    0.4713633629         -0.0056
H2603      H    0.7799495383    0.2601110454    0.5385163461         -0.0056
H2604      H    0.8076022022    0.2956826366    0.4897252967         -0.0056
O2605      O    0.8293294445    0.3212525267    0.4695188464         -0.0056
H2606      H    0.7385955122    0.2293698373    0.4403858880         -0.0056
H2607      H    0.7806553123    0.2756505503    0.4257871120         -0.0056
O2608      O    0.8026575687    0.3014258881    0.4062255475         -0.0056
C2609      C    0.7419816637    0.2244383243    0.5051752699         -0.0056
C2610      C    0.7273791654    0.2135830407    0.4705265466         -0.0056
C2611      C    0.7565836412    0.2352924687    0.5398284865         -0.0056
C2612      C    0.7284961591    0.2117491337    0.4934769988         -0.0056
C2613      C    0.7161735708    0.1972805051    0.5046832351         -0.0056
C2614      C    0.7430969112    0.2226023660    0.5281273164         -0.0056
C2615      C    0.7307730974    0.2081328254    0.5393306536         -0.0056
C2616      C    0.7042211146    0.1801012140    0.5395177848         -0.0056
C2617      C    0.6903135454    0.1669167828    0.5282008377         -0.0056
C2618      C    0.6780573135    0.1525260981    0.5393464911         -0.0056
C2619      C    0.7049130720    0.1777691031    0.5628482563         -0.0056
C2620      C    0.6926568401    0.1633784184    0.5739939097         -0.0056
N2621      N    0.6790141757    0.1505046238    0.5624391243         -0.0056
C2622      C    0.7172037743    0.1953451793    0.5277089083         -0.0056
H2623      H    0.7163616210    0.2032470094    0.4607334802         -0.0056
H2624      H    0.6887687575    0.1677620081    0.5093453801         -0.0056
O2625      O    0.6670397690    0.1421900668    0.5295534247         -0.0056
H2626      H    0.7576366996    0.2339287046    0.5586828947         -0.0056
H2627      H    0.7157116342    0.1877888530    0.5732912467         -0.0056
O2628      O    0.6937098985    0.1620146543    0.5928483179         -0.0056
H2629      H    0.7912131871    0.2764981197    0.5041821024         -0.0056
H2630      H    0.7645425368    0.2566723932    0.4408917025         -0.0056
H2631      H    0.7051560264    0.1869444738    0.4948901687         -0.0056
H2632      H    0.7318249305    0.2067681491    0.5581821628         -0.0056
C2545      C    0.8063684210    0.6326595251    0.7612559575         -0.0056
C2546      C    0.8032718358    0.5983314062    0.7514072272         -0.0056
C2547      C    0.8094644344    0.6669898687    0.7711086348         -0.0056
C2548      C    0.8018738667    0.6131783641    0.7673912412         -0.0056
C2549      C    0.7960035570    0.6085588586    0.7894252868         -0.0056
C2550      C    0.8049696195    0.6475058322    0.7772430986         -0.0056
C2551      C    0.7990998816    0.6428841020    0.7992731970         -0.0056
C2552      C    0.7883793310    0.6185026451    0.8287769865         -0.0056
C2553      C    0.7836841732    0.5988646281    0.8356659061         -0.0056
C2554      C    0.7778454939    0.5942698551    0.8575811211         -0.0056
C2555      C    0.7867804978    0.6331898715    0.8455138163         -0.0056
C2556      C    0.7809418185    0.6285950985    0.8674290313         -0.0056
N2557      N    0.7763715177    0.6090547098    0.8738488830         -0.0056
C2558      C    0.7945645407    0.6233710492    0.8055617097         -0.0056
H2559      H    0.7996565060    0.5822202329    0.7560454685         -0.0056
H2560      H    0.7845790606    0.5860877153    0.8232304499         -0.0056
O2561      O    0.7741924605    0.5782120270    0.8624167740         -0.0056
H2562      H    0.8084255103    0.6794404109    0.7839413046         -0.0056
H2563      H    0.7902934800    0.6494347623    0.8414039887         -0.0056
O2564      O    0.7798479433    0.6409171752    0.8804105798         -0.0056
C2565      C    0.8122781131    0.6373124963    0.7390757573         -0.0056
C2566      C    0.8153746984    0.6716406152    0.7489244875         -0.0056
C2567      C    0.8091820997    0.6029821527    0.7292230799         -0.0056
C2568      C    0.8167726675    0.6567936572    0.7329404735         -0.0056
C2569      C    0.8226429772    0.6614131627    0.7109064279         -0.0056
C2570      C    0.8136769146    0.6224661892    0.7230886161         -0.0056
C2571      C    0.8195474849    0.6270885702    0.7010553905         -0.0056
C2572      C    0.8302669426    0.6514665007    0.6715539082         -0.0056
C2573      C    0.8349623610    0.6711073932    0.6646658086         -0.0056
C2574      C    0.8408010403    0.6757021662    0.6427505936         -0.0056
C2575      C    0.8318668687    0.6367828007    0.6548147713         -0.0056
C2576      C    0.8377055480    0.6413775737    0.6328995563         -0.0056
N2577      N    0.8422750165    0.6609173116    0.6264828317         -0.0056
C2578      C    0.8240819934    0.6466009722    0.6947700050         -0.0056
H2579      H    0.8190277317    0.6876984433    0.7440888346         -0.0056
H2580      H    0.8340666412    0.6838836551    0.6771043919         -0.0056
O2581      O    0.8444540737    0.6917599944    0.6379149407         -0.0056
H2582      H    0.8102759749    0.5906600760    0.7162415314         -0.0056
H2583      H    0.8283544584    0.6205356852    0.6589206517         -0.0056
O2584      O    0.8387994232    0.6290554970    0.6199180078         -0.0056
H2585      H    0.7923505236    0.5925010305    0.7942609397         -0.0056
H2586      H    0.7980057459    0.6552033031    0.8122539255         -0.0056
H2587      H    0.8262960106    0.6774709909    0.7060707750         -0.0056
H2588      H    0.8206416206    0.6147693691    0.6880746621         -0.0056
C2501      C    0.8442238713    0.4893865805    0.5039799261         -0.0056
C2502      C    0.8072093586    0.4848280782    0.5130954143         -0.0056
C2503      C    0.8812414890    0.4939428678    0.4948620583         -0.0056
C2504      C    0.8257204076    0.4779040134    0.5028143478         -0.0056
C2505      C    0.8257247463    0.4595672157    0.4914121700         -0.0056
C2506      C    0.8627349258    0.4824599151    0.4936972409         -0.0056
C2507      C    0.8627361595    0.4641253325    0.4822974427         -0.0056
C2508      C    0.8442362631    0.4331950697    0.4690392425         -0.0056
C2509      C    0.8257341134    0.4210857264    0.4674835462         -0.0056
C2510      C    0.8257382449    0.4028477564    0.4561428808         -0.0056
C2511      C    0.8627455266    0.4256438431    0.4583688188         -0.0056
C2512      C    0.8627496581    0.4074058732    0.4470281534         -0.0056
N2513      N    0.8442466906    0.3956866395    0.4457152692         -0.0056
C2514      C    0.8442329630    0.4525153295    0.4810525458         -0.0056
H2515      H    0.7918137629    0.4756624366    0.5123670293         -0.0056
H2516      H    0.8100856866    0.4260428982    0.4756175463         -0.0056
O2517      O    0.8104390341    0.3935510295    0.4553018776         -0.0056
H2518      H    0.8966427615    0.4885699365    0.4865493535         -0.0056
H2519      H    0.8783898905    0.4344554277    0.4587967594         -0.0056
O2520      O    0.8780520514    0.4018749604    0.4386491467         -0.0056
C2521      C    0.8442223759    0.5078459983    0.5154574242         -0.0056
C2522      C    0.8812368887    0.5124045006    0.5063419359         -0.0056
C2523      C    0.8072047582    0.5032897110    0.5245752920         -0.0056
C2524      C    0.8627258396    0.5193285654    0.5166230025         -0.0056
C2525      C    0.8627215010    0.5376653631    0.5280251803         -0.0056
C2526      C    0.8257113214    0.5147726637    0.5257401094         -0.0056
C2527      C    0.8257100823    0.5331098471    0.5371415263         -0.0056
C2528      C    0.8442068847    0.5640371234    0.5503988686         -0.0056
C2529      C    0.8627121338    0.5761468524    0.5519538041         -0.0056
C2530      C    0.8627080024    0.5943848224    0.5632944695         -0.0056
C2531      C    0.8257007152    0.5715913364    0.5610701502         -0.0056
C2532      C    0.8256965837    0.5898293064    0.5724108156         -0.0056
N2533      N    0.8441995567    0.6015459393    0.5737220811         -0.0056
C2534      C    0.8442132843    0.5447172493    0.5383848045         -0.0056
H2535      H    0.8965360995    0.5217012276    0.5071829391         -0.0056
H2536      H    0.8783605661    0.5711870798    0.5438181852         -0.0056
O2537      O    0.8780072132    0.6036815493    0.5641354727         -0.0056
H2538      H    0.7919023649    0.5088206238    0.5329542987         -0.0056
H2539      H    0.8100532463    0.5627819670    0.5606445892         -0.0056
O2540      O    0.8103941904    0.5953602191    0.5807898223         -0.0056
H2541      H    0.8104255355    0.4502704888    0.4905711669         -0.0056
H2542      H    0.8780354533    0.4585940341    0.4739191969         -0.0056
H2543      H    0.8780207118    0.5469620900    0.5288661834         -0.0056
H2544      H    0.8104107885    0.5386411455    0.5455197722         -0.0056
C2457      C    0.6258735708    0.8645637435    0.2612322053         -0.0056
C2458      C    0.6584072706    0.8461505931    0.2567465531         -0.0056
C2459      C    0.5933379756    0.8829790924    0.2657213544         -0.0056
C2460      C    0.6450911359    0.8576762119    0.2700472362         -0.0056
C2461      C    0.6509728776    0.8622950019    0.2920781778         -0.0056
C2462      C    0.6125582663    0.8760900200    0.2745360143         -0.0056
C2463      C    0.6184419034    0.8807066114    0.2965634591         -0.0056
C2464      C    0.6438984118    0.8787171434    0.3287438535         -0.0056
C2465      C    0.6633160442    0.8719881043    0.3383122451         -0.0056
C2466      C    0.6691662400    0.8765819038    0.3602243996         -0.0056
C2467      C    0.6307850699    0.8903997138    0.3427975264         -0.0056
C2468      C    0.6366352658    0.8949935133    0.3647096809         -0.0056
N2469      N    0.6559283749    0.8881658274    0.3738091758         -0.0056
C2470      C    0.6377001461    0.8738513045    0.3055316629         -0.0056
H2471      H    0.6742723982    0.8403221429    0.2636144997         -0.0056
H2472      H    0.6748605403    0.8624704634    0.3281450380         -0.0056
O2473      O    0.6849925338    0.8708373916    0.3672757732         -0.0056
H2474      H    0.5821343872    0.8924707935    0.2763215336         -0.0056
H2475      H    0.6148247604    0.8964487667    0.3364218972         -0.0056
O2476      O    0.6255653839    0.9044727340    0.3754730459         -0.0056
C2477      C    0.6199500863    0.8599155851    0.2390547136         -0.0056
C2478      C    0.5874163865    0.8783287355    0.2435403658         -0.0056
C2479      C    0.6524856815    0.8415002361    0.2345655645         -0.0056
C2480      C    0.6007325212    0.8668031166    0.2302396827         -0.0056
C2481      C    0.5948507795    0.8621843266    0.2082087411         -0.0056
C2482      C    0.6332653909    0.8483893086    0.2257509045         -0.0056
C2483      C    0.6273809236    0.8437720595    0.2037203338         -0.0056
C2484      C    0.6019279709    0.8457606443    0.1715426945         -0.0056
C2485      C    0.5825076130    0.8524912243    0.1619746737         -0.0056
C2486      C    0.5766574171    0.8478974248    0.1400625193         -0.0056
C2487      C    0.6150377570    0.8340789571    0.1574862665         -0.0056
C2488      C    0.6091875612    0.8294851576    0.1355741120         -0.0056
N2489      N    0.5898952822    0.8363135011    0.1264777431         -0.0056
C2490      C    0.6081235111    0.8506280241    0.1947552560         -0.0056
H2491      H    0.5715900927    0.8840732476    0.2364889922         -0.0056
H2492      H    0.5709639469    0.8620095228    0.1721450068         -0.0056
O2493      O    0.5608311234    0.8536419369    0.1330111457         -0.0056
H2494      H    0.6635555633    0.8320210154    0.2238021995         -0.0056
H2495      H    0.6309999620    0.8280277056    0.1638583988         -0.0056
O2496      O    0.6202574430    0.8200059369    0.1248107470         -0.0056
H2497      H    0.6667991714    0.8565504898    0.2991295514         -0.0056
H2498      H    0.6073747471    0.8901842913    0.3073264532         -0.0056
H2499      H    0.5790244857    0.8679288388    0.2011573674         -0.0056
H2500      H    0.6384480798    0.8342943796    0.1929573397         -0.0056
C2413      C    0.6579012846    0.0078396280    0.5154318585         -0.0056
C2414      C    0.6944211967    0.0131680795    0.5048233453         -0.0056
C2415      C    0.6213783092    0.0025133238    0.5260428830         -0.0056
C2416      C    0.6761583181    0.0196956558    0.5158739345         -0.0056
C2417      C    0.6761556700    0.0380095805    0.5273218273         -0.0056
C2418      C    0.6396384008    0.0143698017    0.5264840731         -0.0056
C2419      C    0.6396388159    0.0326815791    0.5379294546         -0.0056
C2420      C    0.6578940612    0.0639610654    0.5505125950         -0.0056
C2421      C    0.6761498541    0.0764430632    0.5513463991         -0.0056
C2422      C    0.6761474016    0.0946582872    0.5627325256         -0.0056
C2423      C    0.6396330000    0.0711150618    0.5619540264         -0.0056
C2424      C    0.6396305475    0.0893302858    0.5733401529         -0.0056
N2425      N    0.6578871125    0.1014226756    0.5739301428         -0.0056
C2426      C    0.6578955971    0.0446648787    0.5384511766         -0.0056
H2427      H    0.7096117184    0.0226449373    0.5049487842         -0.0056
H2428      H    0.6915885683    0.0718199518    0.5425641038         -0.0056
O2429      O    0.6912428390    0.1042640477    0.5629748255         -0.0056
H2430      H    0.6061834810    0.0075568570    0.5349948706         -0.0056
H2431      H    0.6241970685    0.0619866084    0.5621400217         -0.0056
O2432      O    0.6245332902    0.0945336760    0.5823548161         -0.0056
C2433      C    0.6579011166    0.9894031761    0.5039084565         -0.0056
C2434      C    0.6213812044    0.9840747246    0.5145169697         -0.0056
C2435      C    0.6944240920    0.9947294803    0.4932974320         -0.0056
C2436      C    0.6396440831    0.9775471483    0.5034663805         -0.0056
C2437      C    0.6396467312    0.9592332237    0.4920184877         -0.0056
C2438      C    0.6761640004    0.9828730025    0.4928562419         -0.0056
C2439      C    0.6761635904    0.9645586277    0.4814092350         -0.0056
C2440      C    0.6579113980    0.9332821888    0.4688268341         -0.0056
C2441      C    0.6396525471    0.9207997410    0.4679939160         -0.0056
C2442      C    0.6396549996    0.9025845169    0.4566077894         -0.0056
C2443      C    0.6761694063    0.9261251450    0.4573846632         -0.0056
C2444      C    0.6761718588    0.9079099210    0.4459985367         -0.0056
N2445      N    0.6579152886    0.8958201285    0.4454101722         -0.0056
C2446      C    0.6579068040    0.9525779254    0.4808891384         -0.0056
H2447      H    0.6062857670    0.9744689640    0.5142746698         -0.0056
H2448      H    0.6242138277    0.9254254497    0.4767778367         -0.0056
O2449      O    0.6245595621    0.8929787564    0.4563654896         -0.0056
H2450      H    0.7095213493    0.9895260901    0.4842827688         -0.0056
H2451      H    0.6916084010    0.9352514510    0.4571961566         -0.0056
O2452      O    0.6912691161    0.9027065307    0.4369838735         -0.0056
H2453      H    0.6912511074    0.0476153410    0.5275641272         -0.0056
H2454      H    0.6245446167    0.0378854194    0.5469432319         -0.0056
H2455      H    0.6245512937    0.9496274631    0.4917761878         -0.0056
H2456      H    0.6912577896    0.9593547873    0.4723954577         -0.0056
C2369      C    0.7419743294    0.7727972753    0.5142093100         -0.0056
C2370      C    0.7150584479    0.7706585764    0.5423944970         -0.0056
C2371      C    0.7688907243    0.7749382030    0.4860201701         -0.0056
C2372      C    0.7223374647    0.7789900242    0.5226704183         -0.0056
C2373      C    0.7100244282    0.7934586178    0.5114528719         -0.0056
C2374      C    0.7492516030    0.7811307759    0.4944836362         -0.0056
C2375      C    0.7369380532    0.7955971407    0.4832700427         -0.0056
C2376      C    0.7042415249    0.8171348736    0.4798348776         -0.0056
C2377      C    0.6841845354    0.8238223590    0.4879115798         -0.0056
C2378      C    0.6719377426    0.8382129444    0.4767546451         -0.0056
C2379      C    0.7110981604    0.8259608818    0.4597287505         -0.0056
C2380      C    0.6988513676    0.8403514673    0.4485718159         -0.0056
N2381      N    0.6790558665    0.8467310253    0.4568877750         -0.0056
C2382      C    0.7172157689    0.8018904792    0.4916529937         -0.0056
H2383      H    0.6989806169    0.7755048119    0.5496719298         -0.0056
H2384      H    0.6774292941    0.8174863736    0.5040374191         -0.0056
O2385      O    0.6558339844    0.8431775424    0.4838712595         -0.0056
H2386      H    0.7752074426    0.7815639303    0.4698468854         -0.0056
H2387      H    0.7270985103    0.8214325477    0.4520266293         -0.0056
O2388      O    0.7049982553    0.8470865222    0.4323846571         -0.0056
C2389      C    0.7543715555    0.7582323738    0.5254994658         -0.0056
C2390      C    0.7812874371    0.7603710726    0.4973142787         -0.0056
C2391      C    0.7274551607    0.7560914460    0.5536886056         -0.0056
C2392      C    0.7740084203    0.7520396249    0.5170383574         -0.0056
C2393      C    0.7863214568    0.7375710312    0.5282559038         -0.0056
C2394      C    0.7470942820    0.7498988732    0.5452251395         -0.0056
C2395      C    0.7594095750    0.7354304555    0.5564403281         -0.0056
C2396      C    0.7921021035    0.7138945995    0.5598762559         -0.0056
C2397      C    0.8121613496    0.7072072901    0.5517971960         -0.0056
C2398      C    0.8244081424    0.6928167047    0.5629541306         -0.0056
C2399      C    0.7852494678    0.7050667144    0.5799816203         -0.0056
C2400      C    0.7974962606    0.6906761290    0.5911385549         -0.0056
N2401      N    0.8172900184    0.6842986237    0.5828210007         -0.0056
C2402      C    0.7791301161    0.7291391699    0.5480557820         -0.0056
H2403      H    0.7973911953    0.7554064746    0.4901976643         -0.0056
H2404      H    0.8189148476    0.7135453283    0.5356697615         -0.0056
O2405      O    0.8405119005    0.6878521066    0.5558375162         -0.0056
H2406      H    0.7213082730    0.7493563911    0.5698757643         -0.0056
H2407      H    0.7692486047    0.7095928197    0.5876876943         -0.0056
O2408      O    0.7913493729    0.6839410741    0.6073257136         -0.0056
H2409      H    0.6939206700    0.7984232159    0.5185694863         -0.0056
H2410      H    0.7430826844    0.8023320196    0.4670852417         -0.0056
H2411      H    0.8024252150    0.7326064332    0.5211392894         -0.0056
H2412      H    0.7532649439    0.7286955766    0.5726251291         -0.0056
C2325      C    0.9492502265    0.6439677157    0.9322505295         -0.0056
C2326      C    0.9534338782    0.6470170532    0.9715609269         -0.0056
C2327      C    0.9450693780    0.6409185298    0.8929364366         -0.0056
C2328      C    0.9625179857    0.6469351123    0.9504918839         -0.0056
C2329      C    0.9847849328    0.6498098235    0.9476784016         -0.0056
C2330      C    0.9583374924    0.6438861823    0.9111810821         -0.0056
C2331      C    0.9806016362    0.6467607421    0.9083712953         -0.0056
C2332      C    0.0174853028    0.6527770737    0.9236298361         -0.0056
C2333      C    0.0315142187    0.6558426582    0.9417737619         -0.0056
C2334      C    0.0536611494    0.6587018875    0.9389756418         -0.0056
C2335      C    0.0273309221    0.6527935767    0.9024666556         -0.0056
C2336      C    0.0494778527    0.6556528061    0.8996685355         -0.0056
N2337      N    0.0630330197    0.6586572777    0.9178731015         -0.0056
C2338      C    0.9940241534    0.6497481021    0.9265928405         -0.0056
H2339      H    0.9640016477    0.6494251613    0.9867979161         -0.0056
H2340      H    0.0249231021    0.6560524293    0.9594473374         -0.0056
O2341      O    0.0643916189    0.6611244690    0.9540883701         -0.0056
H2342      H    0.9521563342    0.6407895334    0.8754663229         -0.0056
H2343      H    0.0172021776    0.6504252898    0.8869065414         -0.0056
O2344      O    0.0567530381    0.6555548159    0.8822811002         -0.0056
C2345      C    0.9268344830    0.6410735998    0.9350797212         -0.0056
C2346      C    0.9226508313    0.6380242624    0.8957693237         -0.0056
C2347      C    0.9310153315    0.6441227858    0.9743938141         -0.0056
C2348      C    0.9135667238    0.6381062033    0.9168383668         -0.0056
C2349      C    0.8912997767    0.6352314920    0.9196518491         -0.0056
C2350      C    0.9177472172    0.6411551333    0.9561491685         -0.0056
C2351      C    0.8954799150    0.6382801661    0.9589593596         -0.0056
C2352      C    0.8585997618    0.6322644978    0.9437037057         -0.0056
C2353      C    0.8445704908    0.6291986574    0.9255564887         -0.0056
C2354      C    0.8224235602    0.6263394280    0.9283546088         -0.0056
C2355      C    0.8487506291    0.6322473314    0.9648639993         -0.0056
C2356      C    0.8266036984    0.6293881021    0.9676621194         -0.0056
N2357      N    0.8130516898    0.6263840378    0.9494571491         -0.0056
C2358      C    0.8820605561    0.6352932134    0.9407374101         -0.0056
H2359      H    0.9119203617    0.6356016809    0.8806565954         -0.0056
H2360      H    0.8511647657    0.6289892937    0.9078825090         -0.0056
O2361      O    0.8116930906    0.6239168465    0.9132418805         -0.0056
H2362      H    0.9237401462    0.6442207759    0.9917812494         -0.0056
H2363      H    0.8588765704    0.6346154669    0.9804278090         -0.0056
O2364      O    0.8193285131    0.6294860922    0.9850495547         -0.0056
H2365      H    0.9955154024    0.6522324050    0.9627911299         -0.0056
H2366      H    0.9878771766    0.6466630079    0.8909871511         -0.0056
H2367      H    0.8805693071    0.6328089106    0.9045391208         -0.0056
H2368      H    0.8882043746    0.6383779003    0.9763435038         -0.0056
C2281      C    0.4268162595    0.8561528291    0.0843350786         -0.0056
C2282      C    0.4239085056    0.8239071843    0.0678741828         -0.0056
C2283      C    0.4297211032    0.8884015855    0.1007969571         -0.0056
C2284      C    0.4141860775    0.8414741558    0.0746957447         -0.0056
C2285      C    0.3919185008    0.8443486306    0.0718872929         -0.0056
C2286      C    0.4170906729    0.8737202127    0.0911562442         -0.0056
C2287      C    0.3948260065    0.8765915759    0.0883468097         -0.0056
C2288      C    0.3585792850    0.8649606007    0.0757284392         -0.0056
C2289      C    0.3451878846    0.8503812189    0.0659936051         -0.0056
C2290      C    0.3230403341    0.8532400377    0.0632002114         -0.0056
C2291      C    0.3480953903    0.8826241641    0.0824531219         -0.0056
C2292      C    0.3259478398    0.8854829830    0.0796597282         -0.0056
N2293      N    0.3130302267    0.8708418015    0.0699843341         -0.0056
C2294      C    0.3820410540    0.8619330905    0.0786880587         -0.0056
H2295      H    0.4138712351    0.8116331741    0.0599133956         -0.0056
H2296      H    0.3523185858    0.8356711618    0.0600896160         -0.0056
O2297      O    0.3128370373    0.8410723740    0.0552603786         -0.0056
H2298      H    0.4221030717    0.9029566529    0.1065319787         -0.0056
H2299      H    0.3576850507    0.8951751152    0.0904655817         -0.0056
O2300      O    0.3181449837    0.8999747361    0.0853284308         -0.0056
C2301      C    0.4492325378    0.8532616900    0.0871635339         -0.0056
C2302      C    0.4521402918    0.8855073349    0.1036244297         -0.0056
C2303      C    0.4463276942    0.8210129336    0.0707016554         -0.0056
C2304      C    0.4618627199    0.8679403633    0.0968028678         -0.0056
C2305      C    0.4841302965    0.8650658885    0.0996113196         -0.0056
C2306      C    0.4589581245    0.8356943065    0.0803423683         -0.0056
C2307      C    0.4812259494    0.8328225312    0.0831521991         -0.0056
C2308      C    0.5174692641    0.8444512188    0.0957687943         -0.0056
C2309      C    0.5308609127    0.8590333003    0.1055050074         -0.0056
C2310      C    0.5530084633    0.8561744814    0.1082984011         -0.0056
C2311      C    0.5279565656    0.8267899430    0.0890458869         -0.0056
C2312      C    0.5501041162    0.8239311241    0.0918392806         -0.0056
N2313      N    0.5630185706    0.8385727176    0.1015142785         -0.0056
C2314      C    0.4940077434    0.8474814286    0.0928105538         -0.0056
H2315      H    0.4623435885    0.8976749986    0.1115642626         -0.0056
H2316      H    0.5237270529    0.8737437694    0.1114086003         -0.0056
O2317      O    0.5632117600    0.8683421451    0.1162382340         -0.0056
H2318      H    0.4541305502    0.8065211805    0.0650329528         -0.0056
H2319      H    0.5183698156    0.8142358803    0.0810324443         -0.0056
O2320      O    0.5579069722    0.8094393711    0.0861705780         -0.0056
H2321      H    0.3817152041    0.8321809669    0.0639474600         -0.0056
H2322      H    0.3870229022    0.8910806294    0.0940141333         -0.0056
H2323      H    0.4943335933    0.8772335522    0.1075511525         -0.0056
H2324      H    0.4890290537    0.8183334777    0.0774848755         -0.0056
C2237      C    0.1778563459    0.7582414820    0.9938944460         -0.0056
C2238      C    0.2100362811    0.7429352734    0.9806592607         -0.0056
C2239      C    0.1456719671    0.7735469251    0.0071291528         -0.0056
C2240      C    0.1877627590    0.7433276878    0.9816485853         -0.0056
C2241      C    0.1754456341    0.7288603836    0.9704338478         -0.0056
C2242      C    0.1555810722    0.7586318461    0.9948821814         -0.0056
C2243      C    0.1432683909    0.7441653075    0.9836679225         -0.0056
C2244      C    0.1401124556    0.7139074094    0.9595276101         -0.0056
C2245      C    0.1495967430    0.6984994722    0.9468987436         -0.0056
C2246      C    0.1373461773    0.6841100827    0.9357443971         -0.0056
C2247      C    0.1174194998    0.7138043960    0.9601328183         -0.0056
C2248      C    0.1051689342    0.6994150065    0.9489784717         -0.0056
N2249      N    0.1149159554    0.6843146272    0.9365879906         -0.0056
C2250      C    0.1530889776    0.7291510443    0.9713441892         -0.0056
H2251      H    0.2185395371    0.7308328077    0.9707077396         -0.0056
H2252      H    0.1678240572    0.6974606512    0.9455142828         -0.0056
O2253      O    0.1456696442    0.6719346746    0.9257398992         -0.0056
H2254      H    0.1274007858    0.7741795047    0.0081895521         -0.0056
H2255      H    0.1084416495    0.7257061888    0.9699379873         -0.0056
O2256      O    0.0868858110    0.6998916508    0.9499143319         -0.0056
C2257      C    0.1902531020    0.7728064392    0.0051849883         -0.0056
C2258      C    0.1580731668    0.7881126478    0.0184201736         -0.0056
C2259      C    0.2224374808    0.7575009961    0.9919502815         -0.0056
C2260      C    0.1803466889    0.7877202334    0.0174308490         -0.0056
C2261      C    0.1926638138    0.8021875376    0.0286455865         -0.0056
C2262      C    0.2125283757    0.7724160751    0.0041972529         -0.0056
C2263      C    0.2248428086    0.7868846641    0.0154131011         -0.0056
C2264      C    0.2279996844    0.8171392270    0.0395507135         -0.0056
C2265      C    0.2185127049    0.8325484490    0.0521806907         -0.0056
C2266      C    0.2307632706    0.8469378385    0.0633350372         -0.0056
C2267      C    0.2506916996    0.8172455756    0.0389482053         -0.0056
C2268      C    0.2629422653    0.8316349651    0.0501025518         -0.0056
N2269      N    0.2531934925    0.8467332941    0.0624914437         -0.0056
C2270      C    0.2150204703    0.8018968769    0.0277352451         -0.0056
H2271      H    0.1497497000    0.8002880559    0.0284246714         -0.0056
H2272      H    0.2002836391    0.8335852196    0.0535635623         -0.0056
O2273      O    0.2224398037    0.8591132466    0.0733395351         -0.0056
H2274      H    0.2407206040    0.7570243518    0.9910144213         -0.0056
H2275      H    0.2596739935    0.8053445484    0.0291435148         -0.0056
O2276      O    0.2812253884    0.8311583208    0.0491666916         -0.0056
H2277      H    0.1837691009    0.7166849756    0.9604293500         -0.0056
H2278      H    0.1249879598    0.7446406670    0.9846026720         -0.0056
H2279      H    0.1843403470    0.8143629456    0.0386500843         -0.0056
H2280      H    0.2431232396    0.7864093046    0.0144783515         -0.0056
C2193      C    0.4492805945    0.1439678509    0.9322326365         -0.0056
C2194      C    0.4520778110    0.1549666923    0.9698692481         -0.0056
C2195      C    0.4464862978    0.1329684932    0.8945924697         -0.0056
C2196      C    0.4618556939    0.1509059346    0.9496366564         -0.0056
C2197      C    0.4841236316    0.1537732384    0.9468221489         -0.0056
C2198      C    0.4590616361    0.1399074985    0.9119996407         -0.0056
C2199      C    0.4813266542    0.1427753186    0.9091886884         -0.0056
C2200      C    0.5175186730    0.1527547033    0.9236087607         -0.0056
C2201      C    0.5308550064    0.1597904714    0.9409153697         -0.0056
C2202      C    0.5530029156    0.1626423726    0.9381162216         -0.0056
C2203      C    0.5280580290    0.1487925516    0.9032819091         -0.0056
C2204      C    0.5502059381    0.1516444529    0.9004827611         -0.0056
N2205      N    0.5630684744    0.1586194215    0.9178499993         -0.0056
C2206      C    0.4940565273    0.1497332635    0.9265729028         -0.0056
H2207      H    0.4620692431    0.1606787025    0.9844095685         -0.0056
H2208      H    0.5236774431    0.1633634428    0.9578817862         -0.0056
O2209      O    0.5631606645    0.1683481054    0.9525366301         -0.0056
H2210      H    0.4541504605    0.1295292411    0.8778183131         -0.0056
H2211      H    0.5185149572    0.1430667995    0.8884296872         -0.0056
O2212      O    0.5580546330    0.1482573915    0.8837868017         -0.0056
C2213      C    0.4268639613    0.1410805750    0.9350629901         -0.0056
C2214      C    0.4240667449    0.1300817336    0.8974263786         -0.0056
C2215      C    0.4296582581    0.1520799327    0.9727031569         -0.0056
C2216      C    0.4142888620    0.1341424913    0.9176589702         -0.0056
C2217      C    0.3920209242    0.1312751875    0.9204734777         -0.0056
C2218      C    0.4170829198    0.1451409274    0.9552959859         -0.0056
C2219      C    0.3948147430    0.1422727020    0.9581073424         -0.0056
C2220      C    0.3586261219    0.1322946442    0.9436900169         -0.0056
C2221      C    0.3452895495    0.1252579545    0.9263802569         -0.0056
C2222      C    0.3231416403    0.1224060533    0.9291794050         -0.0056
C2223      C    0.3480833682    0.1362554690    0.9640141217         -0.0056
C2224      C    0.3259354591    0.1334035677    0.9668132697         -0.0056
N2225      N    0.3130760814    0.1264290044    0.9494456274         -0.0056
C2226      C    0.3820880286    0.1353151625    0.9407227238         -0.0056
H2227      H    0.4139089960    0.1243760009    0.8830059700         -0.0056
H2228      H    0.3524702714    0.1216853885    0.9094134362         -0.0056
O2229      O    0.3129838914    0.1167003206    0.9147589965         -0.0056
H2230      H    0.4218095633    0.1554669941    0.9893991162         -0.0056
H2231      H    0.3576235204    0.1419817374    0.9788698988         -0.0056
O2232      O    0.3180867643    0.1367906291    0.9835092291         -0.0056
H2233      H    0.4942813806    0.1594789711    0.9612425575         -0.0056
H2234      H    0.4891755880    0.1393891789    0.8924958801         -0.0056
H2235      H    0.3818631753    0.1255694548    0.9060530691         -0.0056
H2236      H    0.3869658092    0.1456588417    0.9748001507         -0.0056
C2149      C    0.2743655525    0.0078489196    0.0039451311         -0.0056
C2150      C    0.2572651231    0.9923023013    0.9729382952         -0.0056
C2151      C    0.2914674171    0.0233994361    0.0349529458         -0.0056
C2152      C    0.2658196023    0.0092683864    0.9826973247         -0.0056
C2153      C    0.2658266122    0.0275824367    0.9712496876         -0.0056
C2154      C    0.2829200349    0.0248176049    0.0137025406         -0.0056
C2155      C    0.2829256096    0.0431277571    0.0022539245         -0.0056
C2156      C    0.2743866161    0.0639702324    0.9688641622         -0.0056
C2157      C    0.2658414441    0.0660163309    0.9472259472         -0.0056
C2158      C    0.2658483313    0.0842315762    0.9358398683         -0.0056
C2159      C    0.2829404416    0.0815616513    0.9782301841         -0.0056
C2160      C    0.2829473287    0.0997768966    0.9668441053         -0.0056
N2161      N    0.2744016724    0.1014329753    0.9454488832         -0.0056
C2162      C    0.2743798177    0.0446746303    0.9809267405         -0.0056
H2163      H    0.2501544569    0.9930955867    0.9555017839         -0.0056
H2164      H    0.2586101082    0.0525688498    0.9384164801         -0.0056
O2165      O    0.2587822331    0.0852081045    0.9183948252         -0.0056
H2166      H    0.2985846747    0.0371279026    0.0433147483         -0.0056
H2167      H    0.2901661419    0.0812570193    0.9956348540         -0.0056
O2168      O    0.2900189447    0.1136094370    0.9750320257         -0.0056
C2169      C    0.2743598228    0.9894139611    0.0154715048         -0.0056
C2170      C    0.2914602522    0.0049605794    0.0464783407         -0.0056
C2171      C    0.2572579583    0.9738634446    0.9844636900         -0.0056
C2172      C    0.2829057730    0.9879944943    0.0367193112         -0.0056
C2173      C    0.2828987632    0.9696804440    0.0481669483         -0.0056
C2174      C    0.2658053404    0.9724452758    0.0057140953         -0.0056
C2175      C    0.2657997625    0.9541325234    0.0171643313         -0.0056
C2176      C    0.2743373273    0.9332913503    0.0505498747         -0.0056
C2177      C    0.2828839312    0.9312465498    0.0721906887         -0.0056
C2178      C    0.2828770440    0.9130313045    0.0835767676         -0.0056
C2179      C    0.2657849305    0.9156986292    0.0411880717         -0.0056
C2180      C    0.2657780434    0.8974833839    0.0525741506         -0.0056
N2181      N    0.2743237030    0.8958299053    0.0739677527         -0.0056
C2182      C    0.2743455577    0.9525882504    0.0384898954         -0.0056
H2183      H    0.2985263504    0.0039840511    0.0639233837         -0.0056
H2184      H    0.2901152703    0.9446966310    0.0809985358         -0.0056
O2185      O    0.2899431422    0.9120547761    0.1010218106         -0.0056
H2186      H    0.2501863423    0.9600309043    0.9762757696         -0.0056
H2187      H    0.2585577950    0.9159993632    0.0237824229         -0.0056
O2188      O    0.2587064274    0.8836508436    0.0443862301         -0.0056
H2189      H    0.2587605140    0.0285589650    0.9538046445         -0.0056
H2190      H    0.2899957937    0.0569589996    0.0104392461         -0.0056
H2191      H    0.2899648613    0.9687039157    0.0656119913         -0.0056
H2192      H    0.2587295785    0.9403012810    0.0089790097         -0.0056
C2105      C    0.9268445666    0.3561660703    0.0843335048         -0.0056
C2106      C    0.9330039619    0.3683502607    0.0475906420         -0.0056
C2107      C    0.9206815005    0.3439812646    0.1210790509         -0.0056
C2108      C    0.9187474267    0.3636983695    0.0645526779         -0.0056
C2109      C    0.8964795772    0.3665688466    0.0617414479         -0.0056
C2110      C    0.9125848715    0.3515145847    0.1012951467         -0.0056
C2111      C    0.8903206929    0.3543856770    0.0984812333         -0.0056
C2112      C    0.8586069775    0.3649626758    0.0757178566         -0.0056
C2113      C    0.8497483244    0.3725927306    0.0558420733         -0.0056
C2114      C    0.8276005476    0.3754477939    0.0530458156         -0.0056
C2115      C    0.8435894401    0.3604095610    0.0925818587         -0.0056
C2116      C    0.8214416633    0.3632646243    0.0897856010         -0.0056
N2117      N    0.8130569810    0.3708338354    0.0699689192         -0.0056
C2118      C    0.8820687225    0.3619378518    0.0786810999         -0.0056
H2119      H    0.9267383407    0.3745566110    0.0311918505         -0.0056
H2120      H    0.8607119990    0.3766655821    0.0413655214         -0.0056
O2121      O    0.8211452956    0.3816448059    0.0367207520         -0.0056
H2122      H    0.9092910556    0.3400501169    0.1352510996         -0.0056
H2123      H    0.8493465291    0.3541815718    0.1091685263         -0.0056
O2124      O    0.8098906217    0.3593888601    0.1038371093         -0.0056
C2125      C    0.9492604159    0.3532755080    0.0871663307         -0.0056
C2126      C    0.9431010206    0.3410913176    0.1239091935         -0.0056
C2127      C    0.9554234820    0.3654603137    0.0504207845         -0.0056
C2128      C    0.9573575559    0.3457432088    0.1069471575         -0.0056
C2129      C    0.9796254053    0.3428727318    0.1097583876         -0.0056
C2130      C    0.9635201110    0.3579269936    0.0702046888         -0.0056
C2131      C    0.9857874494    0.3550554957    0.0730189962         -0.0056
C2132      C    0.0174985160    0.3444799234    0.0957789015         -0.0056
C2133      C    0.0263566581    0.3368488478    0.1156577622         -0.0056
C2134      C    0.0485044350    0.3339937845    0.1184540199         -0.0056
C2135      C    0.0325187022    0.3490316117    0.0789183708         -0.0056
C2136      C    0.0546664791    0.3461765484    0.0817146285         -0.0056
N2137      N    0.0630480015    0.3386077429    0.1015309162         -0.0056
C2138      C    0.9940362600    0.3475037265    0.0928187355         -0.0056
H2139      H    0.9495562726    0.3348943056    0.1402342571         -0.0056
H2140      H    0.0153898237    0.3327764019    0.1301339200         -0.0056
O2141      O    0.0549596870    0.3277967724    0.1347790834         -0.0056
H2142      H    0.9669745236    0.3693360779    0.0363692763         -0.0056
H2143      H    0.0267652841    0.3552602162    0.0623290199         -0.0056
O2144      O    0.0662175206    0.3500523126    0.0676631202         -0.0056
H2145      H    0.8900243252    0.3727658586    0.0454163843         -0.0056
H2146      H    0.8787701624    0.3505109337    0.1125296642         -0.0056
H2147      H    0.9860806573    0.3366757198    0.1260834512         -0.0056
H2148      H    0.9973379799    0.3589302390    0.0589705653         -0.0056
C2061      C    0.0880244876    0.5078577409    0.0039646500         -0.0056
C2062      C    0.1243556191    0.5134259794    0.0151003255         -0.0056
C2063      C    0.0516903087    0.5022916323    0.9928264245         -0.0056
C2064      C    0.1061869946    0.5198435497    0.0038059090         -0.0056
C2065      C    0.1061840589    0.5381771949    0.9923974191         -0.0056
C2066      C    0.0698558580    0.5142779113    0.9926686136         -0.0056
C2067      C    0.0698559698    0.5326094265    0.9812626736         -0.0056
C2068      C    0.0880163783    0.5640396158    0.9690046727         -0.0056
C2069      C    0.1061776408    0.5766520613    0.9684555343         -0.0056
C2070      C    0.1061749013    0.5948869007    0.9571086009         -0.0056
C2071      C    0.0698495516    0.5710842929    0.9573207888         -0.0056
C2072      C    0.0698468122    0.5893191324    0.9459738554         -0.0056
N2073      N    0.0880088492    0.6015415551    0.9456677029         -0.0056
C2074      C    0.0880182237    0.5447226428    0.9810245572         -0.0056
H2075      H    0.1394674976    0.5230104018    0.0152097967         -0.0056
H2076      H    0.1215366615    0.5721229093    0.9774458791         -0.0056
O2077      O    0.1211921848    0.6045997555    0.9571001460         -0.0056
H2078      H    0.0365739070    0.5072432222    0.9836707367         -0.0056
H2079      H    0.0544935255    0.5618470777    0.9568971685         -0.0056
O2080      O    0.0548274745    0.5944313770    0.9367572140         -0.0056
C2081      C    0.0880246238    0.4894014183    0.0154483454         -0.0056
C2082      C    0.0516934923    0.4838331798    0.0043126699         -0.0056
C2083      C    0.1243588027    0.4949675269    0.0265865709         -0.0056
C2084      C    0.0698621168    0.4774156095    0.0156070864         -0.0056
C2085      C    0.0698650525    0.4590819643    0.0270155763         -0.0056
C2086      C    0.1061932534    0.4829812479    0.0267443818         -0.0056
C2087      C    0.1061931468    0.4646471325    0.0381519417         -0.0056
C2088      C    0.0880357754    0.4332200136    0.0504092527         -0.0056
C2089      C    0.0698714706    0.4206070979    0.0509574611         -0.0056
C2090      C    0.0698742101    0.4023722584    0.0623043945         -0.0056
C2091      C    0.1061995649    0.4261722661    0.0620938265         -0.0056
C2092      C    0.1062023044    0.4079374266    0.0734407599         -0.0056
N2093      N    0.0880402622    0.3957176041    0.0737452925         -0.0056
C2094      C    0.0880308877    0.4525365163    0.0383884382         -0.0056
H2095      H    0.0366762088    0.4741203250    0.0043211248         -0.0056
H2096      H    0.0545124447    0.4251388500    0.0419654964         -0.0056
O2097      O    0.0548569266    0.3926594036    0.0623128494         -0.0056
H2098      H    0.1393781403    0.4898552822    0.0358032123         -0.0056
H2099      H    0.1215586385    0.4354073514    0.0625199968         -0.0056
O2100      O    0.1212216420    0.4028251820    0.0826574013         -0.0056
H2101      H    0.1212013424    0.5478900497    0.9923889642         -0.0056
H2102      H    0.0548396744    0.5377221414    0.9720469623         -0.0056
H2103      H    0.0548477689    0.4493691095    0.0270240312         -0.0056
H2104      H    0.1212094421    0.4595344176    0.0473676530         -0.0056
C2017      C    0.1903018506    0.2244621677    0.0142326187         -0.0056
C2018      C    0.1617242983    0.2010182547    0.0182991864         -0.0056
C2019      C    0.2188835449    0.2479059979    0.0101641216         -0.0056
C2020      C    0.1821983465    0.2054808238    0.0106374923         -0.0056
C2021      C    0.1945192065    0.1910154074    0.9994239755         -0.0056
C2022      C    0.2107776504    0.2289226878    0.0065693332         -0.0056
C2023      C    0.2230943683    0.2144573542    0.9953577459         -0.0056
C2024      C    0.2280572746    0.1801336813    0.9798699459         -0.0056
C2025      C    0.2203759104    0.1606585152    0.9758913106         -0.0056
C2026      C    0.2326302089    0.1462709628    0.9647382641         -0.0056
C2027      C    0.2489510723    0.1841004620    0.9718250810         -0.0056
C2028      C    0.2612053708    0.1697129096    0.9606720345         -0.0056
N2029      N    0.2532612639    0.1505451018    0.9569320977         -0.0056
C2030      C    0.2150766935    0.1953756067    0.9916846446         -0.0056
H2031      H    0.1547210441    0.1855314109    0.0155453412         -0.0056
H2032      H    0.2036699955    0.1561790100    0.9818201993         -0.0056
O2033      O    0.2257973958    0.1307323744    0.9618864141         -0.0056
H2034      H    0.2356574681    0.2519249440    0.0040267673         -0.0056
H2035      H    0.2564047971    0.1994413445    0.9743163602         -0.0056
O2036      O    0.2780008923    0.1735541891    0.9544563862         -0.0056
C2037      C    0.1779010550    0.2390258559    0.0255205895         -0.0056
C2038      C    0.2064786072    0.2624697690    0.0214540218         -0.0056
C2039      C    0.1493193607    0.2155820257    0.0295890867         -0.0056
C2040      C    0.1860045591    0.2580071998    0.0291157160         -0.0056
C2041      C    0.1736836991    0.2724726162    0.0403292328         -0.0056
C2042      C    0.1574252552    0.2345653358    0.0331838750         -0.0056
C2043      C    0.1451067856    0.2490327185    0.0443970537         -0.0056
C2044      C    0.1401432405    0.2833523761    0.0598836005         -0.0056
C2045      C    0.1478269951    0.3028295085    0.0638618977         -0.0056
C2046      C    0.1355726966    0.3172170608    0.0750149442         -0.0056
C2047      C    0.1192500816    0.2793896107    0.0679297186         -0.0056
C2048      C    0.1069957831    0.2937771631    0.0790827651         -0.0056
N2049      N    0.1149416416    0.3129429219    0.0828211106         -0.0056
C2050      C    0.1531262121    0.2681124170    0.0480685636         -0.0056
H2051      H    0.2133114204    0.2780083574    0.0243058718         -0.0056
H2052      H    0.1645346617    0.3073069646    0.0579314176         -0.0056
O2053      O    0.1424055098    0.3327556492    0.0778667941         -0.0056
H2054      H    0.1325238393    0.2117407462    0.0358047350         -0.0056
H2055      H    0.1117922149    0.2640488110    0.0654403689         -0.0056
O2056      O    0.0902002617    0.2899358836    0.0852984134         -0.0056
H2057      H    0.1876863933    0.1754768190    0.9965721255         -0.0056
H2058      H    0.2398874994    0.2182966674    0.9891424358         -0.0056
H2059      H    0.1805165123    0.2880112046    0.0431810827         -0.0056
H2060      H    0.1283136546    0.2451934052    0.0506123638         -0.0056
C1973      C    0.5054137169    0.1410815617    0.5843060994         -0.0056
C1974      C    0.5015471354    0.1460301461    0.5452022326         -0.0056
C1975      C    0.5092837769    0.1361321554    0.6234128477         -0.0056
C1976      C    0.5146569950    0.1421137684    0.5633448333         -0.0056
C1977      C    0.5369245084    0.1392410321    0.5605335232         -0.0056
C1978      C    0.5185267360    0.1371647758    0.6024483065         -0.0056
C1979      C    0.5407907709    0.1342928615    0.5996341150         -0.0056
C1980      C    0.5736503321    0.1322784512    0.5756901481         -0.0056
C1981      C    0.5836550398    0.1332122856    0.5546339971         -0.0056
C1982      C    0.6058024937    0.1303550603    0.5518376480         -0.0056
C1983      C    0.5875213023    0.1282641149    0.5937345889         -0.0056
C1984      C    0.6096687562    0.1254068897    0.5909382398         -0.0056
N1985      N    0.6191995451    0.1264019516    0.5699411458         -0.0056
C1986      C    0.5501888625    0.1353050672    0.5786535569         -0.0056
H1987      H    0.5087663892    0.1469498004    0.5278212776         -0.0056
H1988      H    0.5736607110    0.1363826595    0.5391594302         -0.0056
O1989      O    0.6132054074    0.1312394377    0.5345365662         -0.0056
H1990      H    0.5197201841    0.1329344718    0.6385671390         -0.0056
H1991      H    0.5807951697    0.1272509478    0.6113192803         -0.0056
O1992      O    0.6202718845    0.1221995884    0.6059656808         -0.0056
C1993      C    0.4829980280    0.1439730688    0.5871391892         -0.0056
C1994      C    0.4868646095    0.1390244845    0.6262430561         -0.0056
C1995      C    0.4791279680    0.1489224752    0.5480324410         -0.0056
C1996      C    0.4737547498    0.1429408622    0.6081004553         -0.0056
C1997      C    0.4514872365    0.1458135984    0.6109117655         -0.0056
C1998      C    0.4698850089    0.1478898547    0.5689969821         -0.0056
C1999      C    0.4476178145    0.1507621772    0.5718115674         -0.0056
C2000      C    0.4147610937    0.1527765931    0.5957518655         -0.0056
C2001      C    0.4047567051    0.1518423450    0.6168112915         -0.0056
C2002      C    0.3826092511    0.1546995703    0.6196076406         -0.0056
C2003      C    0.4008872831    0.1567909238    0.5777110935         -0.0056
C2004      C    0.3787398292    0.1596481491    0.5805074425         -0.0056
N2005      N    0.3692121998    0.1586526789    0.6015041428         -0.0056
C2006      C    0.4382228824    0.1497495634    0.5927917317         -0.0056
H2007      H    0.4794616958    0.1381401071    0.6435441379         -0.0056
H2008      H    0.4147541934    0.1486715628    0.6322854647         -0.0056
O2009      O    0.3752063375    0.1538151929    0.6369087224         -0.0056
H2010      H    0.4685248396    0.1521297764    0.5330050000         -0.0056
H2011      H    0.4076099373    0.1578049129    0.5601235207         -0.0056
O2012      O    0.3681367009    0.1628554503    0.5654800016         -0.0056
H2013      H    0.5443274220    0.1401254095    0.5432324413         -0.0056
H2014      H    0.5513935802    0.1310859740    0.6146582808         -0.0056
H2015      H    0.4440843228    0.1449292210    0.6282128473         -0.0056
H2016      H    0.4370150052    0.1539690647    0.5567874015         -0.0056
C1929      C    0.3063902875    0.1326789247    0.7612441268         -0.0056
C1930      C    0.2789784174    0.1109330715    0.7477527651         -0.0056
C1931      C    0.3338036249    0.1544259482    0.7747397412         -0.0056
C1932      C    0.2897384391    0.1194909444    0.7655587285         -0.0056
C1933      C    0.2838667096    0.1148766127    0.7875937200         -0.0056
C1934      C    0.3171494798    0.1412361459    0.7790532179         -0.0056
C1935      C    0.3112762830    0.1366206441    0.8010839566         -0.0056
C1936      C    0.2883962531    0.1185382065    0.8287679653         -0.0056
C1937      C    0.2715445184    0.1051931509    0.8338363500         -0.0056
C1938      C    0.2657043063    0.1006035863    0.8557524877         -0.0056
C1939      C    0.2989540918    0.1269371822    0.8473265866         -0.0056
C1940      C    0.2931138797    0.1223476176    0.8692427243         -0.0056
N1941      N    0.2763865555    0.1091003266    0.8738419495         -0.0056
C1942      C    0.2945837938    0.1234007273    0.8055518171         -0.0056
H1943      H    0.2652478403    0.1000579266    0.7508761177         -0.0056
H1944      H    0.2621613664    0.0977330789    0.8198607233         -0.0056
O1945      O    0.2519993087    0.0897490743    0.8590827412         -0.0056
H1946      H    0.3428802917    0.1616438039    0.7890882698         -0.0056
H1947      H    0.3127456506    0.1378616210    0.8447561401         -0.0056
O1948      O    0.3020706066    0.1294706725    0.8837304049         -0.0056
C1949      C    0.3123032956    0.1373257113    0.7390632571         -0.0056
C1950      C    0.3397151657    0.1590715646    0.7525546187         -0.0056
C1951      C    0.2848899583    0.1155786879    0.7255676426         -0.0056
C1952      C    0.3289551440    0.1505136916    0.7347486553         -0.0056
C1953      C    0.3348268735    0.1551280233    0.7127136639         -0.0056
C1954      C    0.3015441033    0.1287684902    0.7212541659         -0.0056
C1955      C    0.3074181295    0.1333846438    0.6992202995         -0.0056
C1956      C    0.3302950333    0.1514646076    0.6715382935         -0.0056
C1957      C    0.3471490647    0.1648114852    0.6664710339         -0.0056
C1958      C    0.3529892768    0.1694010498    0.6445548962         -0.0056
C1959      C    0.3197403207    0.1430681056    0.6529776695         -0.0056
C1960      C    0.3255805328    0.1476576703    0.6310615318         -0.0056
N1961      N    0.3423070276    0.1609043094    0.6264654344         -0.0056
C1962      C    0.3241097893    0.1466039088    0.6947555667         -0.0056
H1963      H    0.3534201633    0.1699260765    0.7492243652         -0.0056
H1964      H    0.3565313873    0.1722709054    0.6804497883         -0.0056
O1965      O    0.3666942744    0.1802555617    0.6412246426         -0.0056
H1966      H    0.2759332313    0.1084556330    0.7110799621         -0.0056
H1967      H    0.3059472947    0.1321424967    0.6555438632         -0.0056
O1968      O    0.3166238059    0.1405346154    0.6165738512         -0.0056
H1969      H    0.2701617120    0.1040221008    0.7909239735         -0.0056
H1970      H    0.3202307133    0.1437418770    0.8155705122         -0.0056
H1971      H    0.3485318711    0.1659825353    0.7093834104         -0.0056
H1972      H    0.2984636992    0.1262634108    0.6847337439         -0.0056
C1885      C    0.0054117010    0.3561656722    0.4350966239         -0.0056
C1886      C    0.9985547256    0.3776290105    0.4659394092         -0.0056
C1887      C    0.0122724056    0.3347009409    0.4042516498         -0.0056
C1888      C    0.0131599317    0.3683392366    0.4519262126         -0.0056
C1889      C    0.0354274829    0.3712138898    0.4547345400         -0.0056
C1890      C    0.0200200669    0.3468763032    0.4210838217         -0.0056
C1891      C    0.0422838889    0.3497523494    0.4238943380         -0.0056
C1892      C    0.0736483593    0.3649753019    0.4437032332         -0.0056
C1893      C    0.0821581150    0.3772464724    0.4606278649         -0.0056
C1894      C    0.1043055917    0.3801057355    0.4634212062         -0.0056
C1895      C    0.0890145209    0.3557849319    0.4297876629         -0.0056
C1896      C    0.1111619977    0.3586441950    0.4325810042         -0.0056
N1897      N    0.1191977752    0.3708546148    0.4494464805         -0.0056
C1898      C    0.0501869524    0.3619457590    0.4407432508         -0.0056
H1899      H    0.0045300490    0.3876969611    0.4798827327         -0.0056
H1900      H    0.0708996708    0.3852402433    0.4726114220         -0.0056
O1901      O    0.1104723594    0.3901402261    0.4773061375         -0.0056
H1902      H    0.0239529541    0.3269109434    0.3925331241         -0.0056
H1903      H    0.0835524102    0.3456330893    0.4156960413         -0.0056
O1904      O    0.1230012764    0.3509344108    0.4209672292         -0.0056
C1905      C    0.9829962060    0.3532701858    0.4322671779         -0.0056
C1906      C    0.9898531813    0.3318068474    0.4014243926         -0.0056
C1907      C    0.9761355013    0.3747349170    0.4631121521         -0.0056
C1908      C    0.9752479753    0.3410966213    0.4154375892         -0.0056
C1909      C    0.9529804240    0.3382219681    0.4126292619         -0.0056
C1910      C    0.9683878400    0.3625595547    0.4462799801         -0.0056
C1911      C    0.9461208582    0.3596831035    0.4434690694         -0.0056
C1912      C    0.9147589782    0.3444623539    0.4236631520         -0.0056
C1913      C    0.9062497920    0.3321893855    0.4067359370         -0.0056
C1914      C    0.8841023152    0.3293301224    0.4039425957         -0.0056
C1915      C    0.8993902262    0.3536505210    0.4375757445         -0.0056
C1916      C    0.8772427494    0.3507912579    0.4347824032         -0.0056
N1917      N    0.8692101318    0.3385812431    0.4179173213         -0.0056
C1918      C    0.9382209545    0.3474900989    0.4266205511         -0.0056
H1919      H    0.9836864137    0.3217723568    0.3875394614         -0.0056
H1920      H    0.9175113960    0.3241960197    0.3947527742         -0.0056
O1921      O    0.8779355476    0.3192956318    0.3900576644         -0.0056
H1922      H    0.9642962226    0.3824447012    0.4747259271         -0.0056
H1923      H    0.9048486076    0.3638037565    0.4516695551         -0.0056
O1924      O    0.8654034707    0.3585010421    0.4463961783         -0.0056
H1925      H    0.0415942505    0.3812483805    0.4686194712         -0.0056
H1926      H    0.0541225981    0.3420443631    0.4122831463         -0.0056
H1927      H    0.9468136564    0.3281874774    0.3987443306         -0.0056
H1928      H    0.9342821490    0.3673910898    0.4550802612         -0.0056
C1841      C    0.1199636777    0.3599394055    0.2390808161         -0.0056
C1842      C    0.1375598512    0.3894137268    0.2263649687         -0.0056
C1843      C    0.1023651967    0.3304619584    0.2517946088         -0.0056
C1844      C    0.1258143807    0.3723581016    0.2216639331         -0.0056
C1845      C    0.1199436344    0.3677414268    0.1996292998         -0.0056
C1846      C    0.1082173720    0.3428831215    0.2343766563         -0.0056
C1847      C    0.1023489330    0.3382695727    0.2123440777         -0.0056
C1848      C    0.1019737548    0.3457927577    0.1715574352         -0.0056
C1849      C    0.1076231878    0.3580526852    0.1533876069         -0.0056
C1850      C    0.1017841770    0.3534610445    0.1314716953         -0.0056
C1851      C    0.0900284864    0.3285808311    0.1661023848         -0.0056
C1852      C    0.0841894756    0.3239891904    0.1441864732         -0.0056
N1853      N    0.0899641805    0.3363479365    0.1264852830         -0.0056
C1854      C    0.1081587139    0.3506559880    0.1947741062         -0.0056
H1855      H    0.1425521327    0.3998442470    0.2123400700         -0.0056
H1856      H    0.1172654951    0.3722453171    0.1562847713         -0.0056
O1857      O    0.1066848869    0.3637788503    0.1173081174         -0.0056
H1858      H    0.0927170648    0.3163691959    0.2483494940         -0.0056
H1859      H    0.0847948266    0.3178554396    0.1797504547         -0.0056
O1860      O    0.0745416863    0.3099384839    0.1405321759         -0.0056
C1861      C    0.1258722036    0.3645845763    0.2612633589         -0.0056
C1862      C    0.1082760300    0.3351102550    0.2739792063         -0.0056
C1863      C    0.1434706846    0.3940620234    0.2485495662         -0.0056
C1864      C    0.1200215005    0.3521658802    0.2786802419         -0.0056
C1865      C    0.1258922469    0.3567825550    0.3007148752         -0.0056
C1866      C    0.1376185093    0.3816408603    0.2659675187         -0.0056
C1867      C    0.1434877834    0.3862550679    0.2880032215         -0.0056
C1868      C    0.1438635986    0.3787336912    0.3287856702         -0.0056
C1869      C    0.1382126934    0.3664712966    0.3469565681         -0.0056
C1870      C    0.1440517042    0.3710629373    0.3688724797         -0.0056
C1871      C    0.1558082300    0.3959438095    0.3342449144         -0.0056
C1872      C    0.1616472408    0.4005354501    0.3561608260         -0.0056
N1873      N    0.1558717008    0.3881760453    0.3738588920         -0.0056
C1874      C    0.1376771673    0.3738679938    0.3055700688         -0.0056
H1875      H    0.1033753201    0.3247924493    0.2881427842         -0.0056
H1876      H    0.1285695510    0.3522780059    0.3440562795         -0.0056
O1877      O    0.1391509943    0.3607451315    0.3830360576         -0.0056
H1878      H    0.1531184739    0.4081127300    0.2522038635         -0.0056
H1879      H    0.1610441971    0.4066723270    0.3205988993         -0.0056
O1880      O    0.1712950301    0.4145861567    0.3598151234         -0.0056
H1881      H    0.1248443443    0.3780592326    0.1854657219         -0.0056
H1882      H    0.0927026159    0.3242213333    0.2086887109         -0.0056
H1883      H    0.1209915370    0.3464647492    0.3148784531         -0.0056
H1884      H    0.1531341005    0.4003033073    0.2916585884         -0.0056
C1797      C    0.2543717443    0.2582398689    0.5255121372         -0.0056
C1798      C    0.2847258328    0.2799768790    0.5247655611         -0.0056
C1799      C    0.2240168551    0.2364989863    0.5262603637         -0.0056
C1800      C    0.2757310599    0.2618450893    0.5307644921         -0.0056
C1801      C    0.2880510646    0.2473758356    0.5419727837         -0.0056
C1802      C    0.2453787152    0.2401060237    0.5315126584         -0.0056
C1803      C    0.2576995205    0.2256406427    0.5427192998         -0.0056
C1804      C    0.2921259861    0.2139007266    0.5598588793         -0.0056
C1805      C    0.3139055565    0.2170105706    0.5654944598         -0.0056
C1806      C    0.3261592970    0.2026194261    0.5766423258         -0.0056
C1807      C    0.2835540124    0.1952753777    0.5662409758         -0.0056
C1808      C    0.2958077529    0.1808842332    0.5773888419         -0.0056
N1809      N    0.3173257539    0.1843024027    0.5827859001         -0.0056
C1810      C    0.2791442822    0.2291451433    0.5480495718         -0.0056
H1811      H    0.3022366532    0.2832828972    0.5288983866         -0.0056
H1812      H    0.3221115827    0.2316314141    0.5609709616         -0.0056
O1813      O    0.3436871491    0.2057560610    0.5808644732         -0.0056
H1814      H    0.2162724643    0.2217192977    0.5310143941         -0.0056
H1815      H    0.2660977200    0.1915197757    0.5623483018         -0.0056
O1816      O    0.2882424361    0.1660475841    0.5822299968         -0.0056
C1817      C    0.2419672367    0.2728039141    0.5142291687         -0.0056
C1818      C    0.2116131482    0.2510669041    0.5149757449         -0.0056
C1819      C    0.2723221259    0.2945447968    0.5134809423         -0.0056
C1820      C    0.2206079211    0.2691986938    0.5089768139         -0.0056
C1821      C    0.2082879163    0.2836679475    0.4977685223         -0.0056
C1822      C    0.2509602658    0.2909377593    0.5082286476         -0.0056
C1823      C    0.2386377167    0.3054051959    0.4970204161         -0.0056
C1824      C    0.2042155393    0.3171448736    0.4798823666         -0.0056
C1825      C    0.1824334245    0.3140332124    0.4742468462         -0.0056
C1826      C    0.1701796840    0.3284243570    0.4630989802         -0.0056
C1827      C    0.2127832248    0.3357704609    0.4734987400         -0.0056
C1828      C    0.2005294843    0.3501616054    0.4623508740         -0.0056
N1829      N    0.1790132270    0.3467413804    0.4569554058         -0.0056
C1830      C    0.2171946988    0.3018986397    0.4916917342         -0.0056
H1831      H    0.1940852960    0.2479302692    0.5107535975         -0.0056
H1832      H    0.1742291421    0.2994103134    0.4787719345         -0.0056
O1833      O    0.1526518318    0.3252877221    0.4588768327         -0.0056
H1834      H    0.2798874426    0.3093814458    0.5086397874         -0.0056
H1835      H    0.2302403178    0.3395299356    0.4773897638         -0.0056
O1836      O    0.2080948010    0.3649982545    0.4575097191         -0.0056
H1837      H    0.3055789168    0.2505124705    0.5461949311         -0.0056
H1838      H    0.2501367482    0.2108058107    0.5475603945         -0.0056
H1839      H    0.1907600642    0.2805313126    0.4935463748         -0.0056
H1840      H    0.2462004890    0.3202400278    0.4921793213         -0.0056
C1753      C    0.9829842407    0.6439760704    0.5871630805         -0.0056
C1754      C    0.9898336957    0.6653418854    0.6180918508         -0.0056
C1755      C    0.9761310571    0.6226088701    0.5562321143         -0.0056
C1756      C    0.9752319970    0.6560983897    0.6040367886         -0.0056
C1757      C    0.9529639414    0.6589680865    0.6068473687         -0.0056
C1758      C    0.9683793821    0.6347329790    0.5731084129         -0.0056
C1759      C    0.9461150552    0.6376040613    0.5759211889         -0.0056
C1760      C    0.9147460366    0.6527705091    0.5957765951         -0.0056
C1761      C    0.9062322509    0.6649902681    0.6127454206         -0.0056
C1762      C    0.8840842724    0.6678446009    0.6155410030         -0.0056
C1763      C    0.8993833647    0.6436262429    0.5818192408         -0.0056
C1764      C    0.8772353862    0.6464805757    0.5846148231         -0.0056
N1765      N    0.8691955893    0.6586396876    0.6015244470         -0.0056
C1766      C    0.9382079751    0.6497461919    0.5928142362         -0.0056
H1767      H    0.9838550440    0.6753673032    0.6320718356         -0.0056
H1768      H    0.9174877054    0.6729446746    0.6247644797         -0.0056
O1769      O    0.8779141921    0.6778367740    0.6294623892         -0.0056
H1770      H    0.9644534374    0.6148574813    0.5444787084         -0.0056
H1771      H    0.9048488437    0.6335174842    0.5676904275         -0.0056
O1772      O    0.8653990123    0.6388091003    0.5729664155         -0.0056
C1773      C    0.0054002441    0.6410855811    0.5843313600         -0.0056
C1774      C    0.9985507891    0.6197197662    0.5534025896         -0.0056
C1775      C    0.0122534277    0.6624527815    0.6152623262         -0.0056
C1776      C    0.0131524878    0.6289632619    0.5674576518         -0.0056
C1777      C    0.0354205435    0.6260935651    0.5646470717         -0.0056
C1778      C    0.0200051027    0.6503286725    0.5983860275         -0.0056
C1779      C    0.0422725895    0.6474571860    0.5955728569         -0.0056
C1780      C    0.0736390170    0.6322929322    0.5757204358         -0.0056
C1781      C    0.0821522339    0.6200713835    0.5587490198         -0.0056
C1782      C    0.1043002124    0.6172170506    0.5559534375         -0.0056
C1783      C    0.0890042800    0.6414350044    0.5896748050         -0.0056
C1784      C    0.1111522585    0.6385806715    0.5868792226         -0.0056
N1785      N    0.1191888955    0.6264219640    0.5699699935         -0.0056
C1786      C    0.0501765097    0.6353154597    0.5786802042         -0.0056
H1787      H    0.0047208694    0.6097275931    0.5394812034         -0.0056
H1788      H    0.0708936195    0.6121173813    0.5467303555         -0.0056
O1789      O    0.1104702927    0.6072248775    0.5420320512         -0.0056
H1790      H    0.0240898017    0.6701242569    0.6269107338         -0.0056
H1791      H    0.0835425298    0.6515451484    0.6038058141         -0.0056
O1792      O    0.1229886324    0.6462521469    0.5985276302         -0.0056
H1793      H    0.9467938611    0.6689602596    0.6207687549         -0.0056
H1794      H    0.9342792501    0.6299343756    0.5642753718         -0.0056
H1795      H    0.0415906237    0.6161013920    0.5507256855         -0.0056
H1796      H    0.0541083947    0.6551268716    0.6072186740         -0.0056
C1709      C    0.1199502156    0.6373240470    0.7803353853         -0.0056
C1710      C    0.0828996669    0.6354866468    0.7702399290         -0.0056
C1711      C    0.1570030393    0.6391622551    0.7904348093         -0.0056
C1712      C    0.0984772835    0.6387223512    0.7863469367         -0.0056
C1713      C    0.0926012405    0.6433385189    0.8083802249         -0.0056
C1714      C    0.1355270034    0.6405604064    0.7964455201         -0.0056
C1715      C    0.1296486854    0.6451757662    0.8184748406         -0.0056
C1716      C    0.1019427277    0.6514698159    0.8478540874         -0.0056
C1717      C    0.0802700653    0.6530260009    0.8546192565         -0.0056
C1718      C    0.0744255151    0.6576172746    0.8765337170         -0.0056
C1719      C    0.1173175102    0.6548632482    0.8647138721         -0.0056
C1720      C    0.1114729600    0.6594545219    0.8866283327         -0.0056
N1721      N    0.0899246110    0.6609124408    0.8929244451         -0.0056
C1722      C    0.1081351442    0.6466061706    0.8246396171         -0.0056
H1723      H    0.0651578775    0.6365523460    0.7747752367         -0.0056
H1724      H    0.0668140645    0.6505162559    0.8420797885         -0.0056
O1725      O    0.0567343616    0.6587237437    0.8812670727         -0.0056
H1726      H    0.1700880809    0.6417567261    0.8033698270         -0.0056
H1727      H    0.1351849470    0.6539067347    0.8607086198         -0.0056
O1728      O    0.1244122700    0.6620807869    0.8997115637         -0.0056
C1729      C    0.1258683139    0.6326772421    0.7581559667         -0.0056
C1730      C    0.1629188625    0.6345146422    0.7682514230         -0.0056
C1731      C    0.0888154902    0.6308390339    0.7480565426         -0.0056
C1732      C    0.1473412460    0.6312789379    0.7521444153         -0.0056
C1733      C    0.1532172890    0.6266627701    0.7301111271         -0.0056
C1734      C    0.1102915261    0.6294408826    0.7420458319         -0.0056
C1735      C    0.1161706729    0.6248248678    0.7200133844         -0.0056
C1736      C    0.1438726980    0.6185313202    0.6906364239         -0.0056
C1737      C    0.1655484641    0.6169752882    0.6838720955         -0.0056
C1738      C    0.1713930143    0.6123840145    0.6619576350         -0.0056
C1739      C    0.1285018480    0.6151373858    0.6737743528         -0.0056
C1740      C    0.1343463983    0.6105461121    0.6518598923         -0.0056
N1741      N    0.1558939184    0.6090888483    0.6455669069         -0.0056
C1742      C    0.1376833853    0.6233951184    0.7138517349         -0.0056
H1743      H    0.1806100161    0.6334081731    0.7635180673         -0.0056
H1744      H    0.1790036362    0.6194856882    0.6964146906         -0.0056
O1745      O    0.1890841679    0.6112775454    0.6572242793         -0.0056
H1746      H    0.0758761801    0.6282127689    0.7349733116         -0.0056
H1747      H    0.1106321362    0.6160930913    0.6777756374         -0.0056
O1748      O    0.1214070882    0.6079198471    0.6387766612         -0.0056
H1749      H    0.0749100870    0.6444449880    0.8131135806         -0.0056
H1750      H    0.1425848916    0.6478018783    0.8315572309         -0.0056
H1751      H    0.1709084425    0.6255563010    0.7253777714         -0.0056
H1752      H    0.1032344666    0.6221987556    0.7069309940         -0.0056
C1665      C    0.1578834123    0.5078470035    0.5154747564         -0.0056
C1666      C    0.1598718598    0.4905011066    0.5500650295         -0.0056
C1667      C    0.1558947982    0.5251969496    0.4808832035         -0.0056
C1668      C    0.1588782005    0.5083674284    0.5385130932         -0.0056
C1669      C    0.1588794979    0.5266825127    0.5499586744         -0.0056
C1670      C    0.1568897529    0.5257159259    0.5039244393         -0.0056
C1671      C    0.1568912169    0.5440269611    0.5153713002         -0.0056
C1672      C    0.1578874366    0.5639714409    0.5505495126         -0.0056
C1673      C    0.1588822065    0.5651185895    0.5739780750         -0.0056
C1674      C    0.1588835068    0.5833348542    0.5853621268         -0.0056
C1675      C    0.1568939256    0.5824630379    0.5393907008         -0.0056
C1676      C    0.1568952258    0.6006793026    0.5507747527         -0.0056
N1677      N    0.1578900071    0.6014363742    0.5739604360         -0.0056
C1678      C    0.1578860014    0.5446748111    0.5384889775         -0.0056
H1679      H    0.1606995295    0.4905463371    0.5689913659         -0.0056
H1680      H    0.1597222772    0.5509101280    0.5843031067         -0.0056
O1681      O    0.1597060106    0.5835680193    0.6042876510         -0.0056
H1682      H    0.1550680370    0.5396743997    0.4710297294         -0.0056
H1683      H    0.1560529239    0.5829185707    0.5204720880         -0.0056
O1684      O    0.1560737887    0.6152560265    0.5411047202         -0.0056
C1685      C    0.1578819519    0.4894111437    0.5039501742         -0.0056
C1686      C    0.1558935044    0.5067570407    0.4693599011         -0.0056
C1687      C    0.1598705660    0.4720611976    0.5385417270         -0.0056
C1688      C    0.1568871638    0.4888907189    0.4809118374         -0.0056
C1689      C    0.1568858664    0.4705756346    0.4694662562         -0.0056
C1690      C    0.1588756113    0.4715422214    0.5155004913         -0.0056
C1691      C    0.1588741474    0.4532285857    0.5040520111         -0.0056
C1692      C    0.1578780941    0.4332852578    0.4688783169         -0.0056
C1693      C    0.1568831577    0.4321395578    0.4454468556         -0.0056
C1694      C    0.1568818574    0.4139232930    0.4340628037         -0.0056
C1695      C    0.1588714388    0.4147925089    0.4800326105         -0.0056
C1696      C    0.1588701385    0.3965762441    0.4686485587         -0.0056
N1697      N    0.1578753571    0.3958217731    0.4454644945         -0.0056
C1698      C    0.1578793629    0.4525833362    0.4809359531         -0.0056
H1699      H    0.1550710006    0.5065238756    0.4504343769         -0.0056
H1700      H    0.1560430869    0.4463506198    0.4351234430         -0.0056
O1701      O    0.1560593536    0.4136901280    0.4151372796         -0.0056
H1702      H    0.1606920032    0.4574844738    0.5482117595         -0.0056
H1703      H    0.1597126070    0.4143329269    0.4989525032         -0.0056
O1704      O    0.1596915757    0.3819995203    0.4783185912         -0.0056
H1705      H    0.1597020017    0.5269156778    0.5688841985         -0.0056
H1706      H    0.1560699462    0.5586022363    0.5057041667         -0.0056
H1707      H    0.1560633626    0.4703424695    0.4505407320         -0.0056
H1708      H    0.1596954181    0.4386533104    0.5137191446         -0.0056
C1621      C    0.5054220545    0.8561599681    0.4350559183         -0.0056
C1622      C    0.5111242805    0.8481768889    0.3968274594         -0.0056
C1623      C    0.4997225046    0.8641441238    0.4732879808         -0.0056
C1624      C    0.5194495279    0.8536110272    0.4173520268         -0.0056
C1625      C    0.5417174578    0.8564845220    0.4201586171         -0.0056
C1626      C    0.5137504603    0.8615945150    0.4555808888         -0.0056
C1627      C    0.5360157142    0.8644669333    0.4583838753         -0.0056
C1628      C    0.5736601798    0.8649653291    0.4436555181         -0.0056
C1629      C    0.5884487955    0.8625148820    0.4260487855         -0.0056
C1630      C    0.6105967113    0.8653728467    0.4288400562         -0.0056
C1631      C    0.5827470519    0.8704972933    0.4642740438         -0.0056
C1632      C    0.6048949676    0.8733552580    0.4670653144         -0.0056
N1633      N    0.6192098433    0.8708435076    0.4493981095         -0.0056
C1634      C    0.5501979426    0.8619380181    0.4406997381         -0.0056
H1635      H    0.5223241368    0.8459952446    0.3820378033         -0.0056
H1636      H    0.5824992426    0.8580614797    0.4088351553         -0.0056
O1637      O    0.6219553225    0.8632343842    0.4141717909         -0.0056
H1638      H    0.5061780614    0.8686045822    0.4903052315         -0.0056
H1639      H    0.5719760387    0.8727928531    0.4793794115         -0.0056
O1640      O    0.6115428194    0.8778172309    0.4840027233         -0.0056
C1641      C    0.4830052038    0.8532679328    0.4322335805         -0.0056
C1642      C    0.4773029779    0.8612510120    0.4704620394         -0.0056
C1643      C    0.4887047537    0.8452837771    0.3940015180         -0.0056
C1644      C    0.4689777305    0.8558168737    0.4499374720         -0.0056
C1645      C    0.4467098006    0.8529433789    0.4471308817         -0.0056
C1646      C    0.4746767981    0.8478333859    0.4117086100         -0.0056
C1647      C    0.4524083860    0.8449605589    0.4089052203         -0.0056
C1648      C    0.4147675609    0.8444619039    0.4236307801         -0.0056
C1649      C    0.3999784629    0.8469130189    0.4412407133         -0.0056
C1650      C    0.3778305471    0.8440550542    0.4384494426         -0.0056
C1651      C    0.4056770482    0.8389301990    0.4030150518         -0.0056
C1652      C    0.3835291325    0.8360722343    0.4002237812         -0.0056
N1653      N    0.3692174151    0.8385843933    0.4178913893         -0.0056
C1654      C    0.4382293157    0.8474898828    0.4265897607         -0.0056
H1655      H    0.4659443667    0.8633894744    0.4851303046         -0.0056
H1656      H    0.4059311740    0.8513668299    0.4584547466         -0.0056
O1657      O    0.3664719359    0.8461935167    0.4531177079         -0.0056
H1658      H    0.4820569019    0.8408218041    0.3770641092         -0.0056
H1659      H    0.4164453854    0.8366335625    0.3879060804         -0.0056
O1660      O    0.3768812807    0.8316102613    0.3832863724         -0.0056
H1661      H    0.5530760690    0.8543460596    0.4054903518         -0.0056
H1662      H    0.5426640482    0.8689282384    0.4753180836         -0.0056
H1663      H    0.4353511894    0.8550818413    0.4617991470         -0.0056
H1664      H    0.4457600519    0.8404992538    0.3919710121         -0.0056
C1577      C    0.3063646898    0.8645709863    0.2581613016         -0.0056
C1578      C    0.3049060136    0.8298908363    0.2495175451         -0.0056
C1579      C    0.3078226556    0.8992546991    0.2668026622         -0.0056
C1580      C    0.3026845578    0.8495503932    0.2427817008         -0.0056
C1581      C    0.2968053606    0.8541686421    0.2207498855         -0.0056
C1582      C    0.3041424001    0.8842312029    0.2514223329         -0.0056
C1583      C    0.2982639134    0.8888458891    0.2293929134 0.12240000000000001
C1584      C    0.2883484049    0.8787223311    0.1906466557         -0.0056
C1585      C    0.2844673139    0.8638607242    0.1745140776         -0.0056
C1586      C    0.2786198032    0.8684539047    0.1526009890         -0.0056
C1587      C    0.2859258667    0.8985379711    0.1831571056         -0.0056
C1588      C    0.2800783560    0.9031311516    0.1612440170         -0.0056
N1589      N    0.2763223432    0.8881705906    0.1455800969         -0.0056
C1590      C    0.2945429224    0.8738576209    0.2138602176         -0.0056
H1591      H    0.3019684987    0.8172954169    0.2371876741         -0.0056
H1592      H    0.2860579159    0.8474668901    0.1791315409         -0.0056
O1593      O    0.2756402518    0.8559847631    0.1401218608         -0.0056
H1594      H    0.3060987709    0.9155139235    0.2616645081         -0.0056
H1595      H    0.2887498434    0.9114632696    0.1950828491         -0.0056
O1596      O    0.2783038265    0.9193344211    0.1559075845         -0.0056
C1597      C    0.3122832016    0.8599246349    0.2803406916         -0.0056
C1598      C    0.3137418778    0.8946047849    0.2889844481         -0.0056
C1599      C    0.3108252358    0.8252409221    0.2716993310         -0.0056
C1600      C    0.3159633336    0.8749452280    0.2957202925         -0.0056
C1601      C    0.3218425308    0.8703269791    0.3177521078         -0.0056
C1602      C    0.3145054913    0.8402644183    0.2870796604         -0.0056
C1603      C    0.3203848119    0.8356490725    0.3091122042         -0.0056
C1604      C    0.3302993631    0.8457703871    0.3478546090         -0.0056
C1605      C    0.3341805775    0.8606348971    0.3639879156         -0.0056
C1606      C    0.3400280882    0.8560417165    0.3859010042         -0.0056
C1607      C    0.3327228585    0.8259569904    0.3553480120         -0.0056
C1608      C    0.3385703693    0.8213638099    0.3772611006         -0.0056
N1609      N    0.3423255482    0.8363250306    0.3929218963         -0.0056
C1610      C    0.3241049689    0.8506380003    0.3246417756         -0.0056
H1611      H    0.3167214291    0.9070739265    0.3014635763         -0.0056
H1612      H    0.3325891417    0.8770293908    0.3593673280         -0.0056
O1613      O    0.3430076396    0.8685108581    0.3983801324         -0.0056
H1614      H    0.3125997653    0.8090376526    0.2770357635         -0.0056
H1615      H    0.3298995923    0.8130281292    0.3434246644         -0.0056
O1616      O    0.3403448987    0.8051605404    0.3825975331         -0.0056
H1617      H    0.2938258092    0.8416995005    0.2082707573         -0.0056
H1618      H    0.2964892605    0.9050462555    0.2240557524         -0.0056
H1619      H    0.3248220822    0.8827961207    0.3302312359         -0.0056
H1620      H    0.3221594647    0.8194487060    0.3144493652         -0.0056
C1533      C    0.3442320005    0.0078491870    0.5154358692         -0.0056
C1534      C    0.3815820620    0.0118093862    0.5075155761         -0.0056
C1535      C    0.3068788060    0.0038912531    0.5233584419         -0.0056
C1536      C    0.3629039834    0.0190322322    0.5171997874         -0.0056
C1537      C    0.3629011578    0.0373682402    0.5286035481         -0.0056
C1538      C    0.3255539165    0.0150746338    0.5251216993         -0.0056
C1539      C    0.3255542239    0.0334083766    0.5365231804         -0.0056
C1540      C    0.3442242537    0.0640382632    0.5503814326         -0.0056
C1541      C    0.3628949638    0.0758480765    0.5525354853         -0.0056
C1542      C    0.3628923390    0.0940852579    0.5638777310         -0.0056
C1543      C    0.3255480299    0.0718882129    0.5604551176         -0.0056
C1544      C    0.3255454051    0.0901253943    0.5717973633         -0.0056
N1545      N    0.3442169074    0.1015451030    0.5737085937         -0.0056
C1546      C    0.3442259480    0.0447188560    0.5383664205         -0.0056
H1547      H    0.3971178393    0.0207258322    0.5087417665         -0.0056
H1548      H    0.3786846659    0.0706382860    0.5449061245         -0.0056
O1549      O    0.3783308698    0.1031343406    0.5652134408         -0.0056
H1550      H    0.2913385313    0.0095127900    0.5311745241         -0.0056
H1551      H    0.3097612618    0.0633298269    0.5595213751         -0.0056
O1552      O    0.3101049183    0.0959033076    0.5796829540         -0.0056
C1553      C    0.3442319466    0.9893906108    0.5039566850         -0.0056
C1554      C    0.3068818850    0.9854304116    0.5118769780         -0.0056
C1555      C    0.3815851410    0.9933485447    0.4960341123         -0.0056
C1556      C    0.3255599637    0.9782075656    0.5021927668         -0.0056
C1557      C    0.3255627892    0.9598715576    0.4907890061         -0.0056
C1558      C    0.3629100305    0.9821651640    0.4942708549         -0.0056
C1559      C    0.3629097284    0.9638288205    0.4828677550         -0.0056
C1560      C    0.3442428209    0.9332018702    0.4690104607         -0.0056
C1561      C    0.3255689832    0.9213917213    0.4668570688         -0.0056
C1562      C    0.3255716080    0.9031545399    0.4555148231         -0.0056
C1563      C    0.3629159224    0.9253489842    0.4589358177         -0.0056
C1564      C    0.3629185472    0.9071118028    0.4475935720         -0.0056
N1565      N    0.3442470397    0.8956946948    0.4456839604         -0.0056
C1566      C    0.3442379990    0.9525209418    0.4810261336         -0.0056
H1567      H    0.2914433543    0.9763813290    0.5105412683         -0.0056
H1568      H    0.3097792758    0.9266041125    0.4744880484         -0.0056
O1569      O    0.3101330773    0.8941054572    0.4541791134         -0.0056
H1570      H    0.3970256278    0.9875706315    0.4881485216         -0.0056
H1571      H    0.3787058234    0.9339051050    0.4598672806         -0.0056
O1572      O    0.3783590340    0.9013338895    0.4397079814         -0.0056
H1573      H    0.3783396886    0.0464173229    0.5299392578         -0.0056
H1574      H    0.3101168647    0.0391866254    0.5444081102         -0.0056
H1575      H    0.3101242584    0.9508224749    0.4894532963         -0.0056
H1576      H    0.3783470876    0.9580505717    0.4749828251         -0.0056
C1489      C    0.2543788090    0.7390084593    0.4938937132         -0.0056
C1490      C    0.2276770503    0.7408683702    0.4654670151         -0.0056
C1491      C    0.2810845524    0.7371504415    0.5223212072         -0.0056
C1492      C    0.2472134698    0.7471988970    0.4740540703         -0.0056
C1493      C    0.2595350272    0.7616646184    0.4628419456         -0.0056
C1494      C    0.2739169800    0.7453410380    0.5024791815         -0.0056
C1495      C    0.2862345526    0.7598048663    0.4912662609         -0.0056
C1496      C    0.2921364159    0.7833373536    0.4595345129         -0.0056
C1497      C    0.2853931815    0.7920223036    0.4393124320         -0.0056
C1498      C    0.2976481829    0.8064100522    0.4281606087         -0.0056
C1499      C    0.3120927068    0.7901625515    0.4677367473         -0.0056
C1500      C    0.3243477083    0.8045503001    0.4565849239         -0.0056
N1501      N    0.3173417531    0.8129274623    0.4366008750         -0.0056
C1502      C    0.2791550356    0.7680958480    0.4713488609         -0.0056
H1503      H    0.2214543661    0.7473768107    0.4491971567         -0.0056
H1504      H    0.2694799413    0.7873776914    0.4315052245         -0.0056
O1505      O    0.2915910624    0.8130264242    0.4118773383         -0.0056
H1506      H    0.2970783453    0.7421114447    0.5297029335         -0.0056
H1507      H    0.3187532739    0.7839450879    0.4839623707         -0.0056
O1508      O    0.3403681175    0.8096312936    0.4638015357         -0.0056
C1509      C    0.2419771657    0.7244461388    0.5051828041         -0.0056
C1510      C    0.2686789244    0.7225862279    0.5336095022         -0.0056
C1511      C    0.2152714223    0.7263041566    0.4767553101         -0.0056
C1512      C    0.2491425049    0.7162557012    0.5250224470         -0.0056
C1513      C    0.2368209475    0.7017899797    0.5362345717         -0.0056
C1514      C    0.2224389947    0.7181135601    0.4965973358         -0.0056
C1515      C    0.2101196706    0.7036476798    0.5078118433         -0.0056
C1516      C    0.2042173255    0.6801174034    0.5395396217         -0.0056
C1517      C    0.2109627932    0.6714322945    0.5597640853         -0.0056
C1518      C    0.1987077918    0.6570445460    0.5709159087         -0.0056
C1519      C    0.1842615164    0.6732899947    0.5313413569         -0.0056
C1520      C    0.1720065149    0.6589022461    0.5424931802         -0.0056
N1521      N    0.1790142216    0.6505271358    0.5624756423         -0.0056
C1522      C    0.2172009391    0.6953587501    0.5277276564         -0.0056
H1523      H    0.2747360449    0.7159698558    0.5498927726         -0.0056
H1524      H    0.2268777848    0.6760789587    0.5675697060         -0.0056
O1525      O    0.2047649123    0.6504281739    0.5871991791         -0.0056
H1526      H    0.1992510130    0.7212231631    0.4695386983         -0.0056
H1527      H    0.1775969645    0.6795055652    0.5151149376         -0.0056
O1528      O    0.1559861057    0.6538212526    0.5352765685         -0.0056
H1529      H    0.2534779067    0.7682809905    0.4465586752         -0.0056
H1530      H    0.3022527285    0.7648860187    0.4984804898         -0.0056
H1531      H    0.2428780680    0.6951736076    0.5525178421         -0.0056
H1532      H    0.1941014947    0.6985665275    0.5005976144         -0.0056
loop_
_geom_bond_atom_site_label_1
_geom_bond_atom_site_label_2
_geom_bond_distance
_geom_bond_site_symmetry_2
_ccdc_geom_bond_type
C1           C2 1.408       .   S
C1          N36 1.361       .   D
C1          C53 1.475       .   S
C2           C3 1.401       .   D
C2          H56 1.083       .   S
C3           C4 1.400       .   S
C3          H57 1.083       .   S
C5           C4 1.407       .   D
C12          C4 1.404       .   S
C5           C6 1.406       .   S
H58          C5 1.083       .   S
C6           C7 1.405       .   D
C6          H59 1.083       .   S
C7           C8 1.406       .   S
C7          C11 1.404       .   S
C8          H60 1.083       .   S
C8           C9 1.406       .   D
C9          C10 1.403       .   S
C9          H61 1.083       .   S
C10         N37 1.355       .   D
C10         C14 1.462       .   S
C11         C12 1.413       .   D
C11         N37 1.357       .   S
N36         C12 1.367       .   S
C13         H62 1.083       .   S
C13         C50 1.476       .   S
N40         C13 1.299       .   D
C14         C15 1.399       .   D
C14         C19 1.400       .   S
C15         C16 1.396       .   S
C15         H63 1.083       .   S
C16         C17 1.404       .   D
C16         H64 1.083       .   S
C17         C20 1.473       .   S
C17         C18 1.406       .   S
C18         C19 1.397       .   D
C18         H65 1.083       .   S
C19         H66 1.083       .   S
C20         H67 1.082       .   S
C20         N41 1.300       .   D
C21         C84 1.467       .   S
C21         N38 1.357       .   D
C21         C22 1.405       .   S
C22         C23 1.403       .   D
C22         H68 1.083       .   S
C23         H69 1.083       .   S
C23         C24 1.403       .   S
C24         C32 1.404       .   D
C25         C24 1.405       .   S
C25         C26 1.404       .   D
C25         H70 1.083       .   S
C26         H71 1.083       .   S
C27         C26 1.406       .   S
C27         C28 1.401       .   S
C27         C31 1.405       .   D
C28         C29 1.402       .   D
C28         H72 1.083       .   S
C29         H73 1.083       .   S
C29         C30 1.406       .   S
C30         N39 1.361       .   D
C30         C44 1.470       .   S
C31         C32 1.414       .   S
C31         N39 1.364       .   S
C32         N38 1.361       .   S
C33         H74 1.083       .   S
C33         C87 1.474       .   S
C33         N42 1.300       .   D
C34         N43 1.300       .   D
C34         C47 1.473       .   S
C34         H75 1.084       .   S
Cu35        N38 1.903       .   S
Cu35        N39 1.922       .   S
Cu35        N37 1.902       .   S
N36        Cu35 1.924       .   S
N40       N1653 4.428       .   S
N41       N1565 4.373       .   S
N42       N1501 4.374       .   S
N43       N1609 4.228       .   S
C44         C49 1.400       .   D
C45         C44 1.403       .   S
C45         H76 1.084       .   S
C45         C46 1.395       .   D
C46         C47 1.405       .   S
C46         H77 1.083       .   S
C48         C47 1.404       .   D
C48         H78 1.083       .   S
C48         C49 1.397       .   S
C49         H79 1.079       .   S
C50         C55 1.407       .   S
C50         C51 1.403       .   D
C51         C52 1.397       .   S
C51         H80 1.083       .   S
C52         C53 1.404       .   D
C52         H81 1.083       .   S
C53         C54 1.400       .   S
C54         H82 1.077       .   S
C54         C55 1.397       .   D
C55         H83 1.083       .   S
C84         C85 1.398       .   S
C89         C84 1.474       .   D
C85         C86 1.402       .   D
C85         H90 1.083       .   S
C86         H91 1.083       .   S
C87         C86 1.410       .   S
C87         C88 1.402       .   D
C88         H92 1.084       .   S
C88         C89 1.389       .   S
C89         H93 1.083       .   S
C94         C95 1.408       .   S
C94        N129 1.361       .   D
C94        C146 1.475       .   S
C95         C96 1.401       .   D
C95        H149 1.083       .   S
C96         C97 1.400       .   S
C96        H150 1.083       .   S
C98         C97 1.407       .   D
C105        C97 1.404       .   S
C98         C99 1.406       .   S
H151        C98 1.083       .   S
C99        C100 1.405       .   D
C99        H152 1.083       .   S
C100       C101 1.406       .   S
C100       C104 1.404       .   S
C101       H153 1.083       .   S
C101       C102 1.406       .   D
C102       C103 1.403       .   S
C102       H154 1.083       .   S
C103       N130 1.355       .   D
C103       C107 1.462       .   S
C104       C105 1.413       .   D
C104       N130 1.357       .   S
N129       C105 1.367       .   S
C106       H155 1.083       .   S
C106       C143 1.476       .   S
N133       C106 1.299       .   D
C107       C108 1.399       .   D
C107       C112 1.400       .   S
C108       C109 1.396       .   S
C108       H156 1.083       .   S
C109       C110 1.404       .   D
C109       H157 1.083       .   S
C110       C113 1.473       .   S
C110       C111 1.406       .   S
C111       C112 1.397       .   D
C111       H158 1.083       .   S
C112       H159 1.083       .   S
C113       H160 1.082       .   S
C113       N134 1.300       .   D
C114       C177 1.467       .   S
C114       N131 1.357       .   D
C114       C115 1.405       .   S
C115       C116 1.403       .   D
C115       H161 1.083       .   S
C116       H162 1.083       .   S
C116       C117 1.403       .   S
C117       C125 1.404       .   D
C118       C117 1.405       .   S
C118       C119 1.404       .   D
C118       H163 1.083       .   S
C119       H164 1.083       .   S
C120       C119 1.406       .   S
C120       C121 1.401       .   S
C120       C124 1.405       .   D
C121       C122 1.402       .   D
C121       H165 1.083       .   S
C122       H166 1.083       .   S
C122       C123 1.406       .   S
C123       N132 1.361       .   D
C123       C137 1.470       .   S
C124       C125 1.414       .   S
C124       N132 1.364       .   S
C125       N131 1.361       .   S
C126       H167 1.083       .   S
C126       C180 1.474       .   S
C126       N135 1.300       .   D
C127       N136 1.300       .   D
C127       C140 1.473       .   S
C127       H168 1.084       .   S
Cu128      N131 1.903       .   S
Cu128      N132 1.922       .   S
Cu128      N130 1.902       .   S
N129      Cu128 1.924       .   S
N133      N1785 4.428       .   S
N134      N1741 4.228       .   S
N135      N1521 4.374       .   S
N136      N1677 4.224       .   S
C137       C142 1.400       .   D
C138       C137 1.403       .   S
C138       H169 1.084       .   S
C138       C139 1.395       .   D
C139       C140 1.405       .   S
C139       H170 1.083       .   S
C141       C140 1.404       .   D
C141       H171 1.083       .   S
C141       C142 1.397       .   S
C142       H172 1.079       .   S
C143       C148 1.407       .   S
C143       C144 1.403       .   D
C144       C145 1.397       .   S
C144       H173 1.083       .   S
C145       C146 1.404       .   D
C145       H174 1.083       .   S
C146       C147 1.400       .   S
C147       H175 1.077       .   S
C147       C148 1.397       .   D
C148       H176 1.083       .   S
C177       C178 1.398       .   S
C182       C177 1.474       .   D
C178       C179 1.402       .   D
C178       H183 1.083       .   S
C179       H184 1.083       .   S
C180       C179 1.410       .   S
C180       C181 1.402       .   D
C181       H185 1.084       .   S
C181       C182 1.389       .   S
C182       H186 1.083       .   S
C187       C188 1.408       .   S
C187       N222 1.361       .   D
C187       C239 1.475       .   S
C188       C189 1.401       .   D
C188       H242 1.083       .   S
C189       C190 1.400       .   S
C189       H243 1.083       .   S
C191       C190 1.407       .   D
C198       C190 1.404       .   S
C191       C192 1.406       .   S
H244       C191 1.083       .   S
C192       C193 1.405       .   D
C192       H245 1.083       .   S
C193       C194 1.406       .   S
C193       C197 1.404       .   S
C194       H246 1.083       .   S
C194       C195 1.406       .   D
C195       C196 1.403       .   S
C195       H247 1.083       .   S
C196       N223 1.355       .   D
C196       C200 1.462       .   S
C197       C198 1.413       .   D
C197       N223 1.357       .   S
N222       C198 1.367       .   S
C199       H248 1.083       .   S
C199       C236 1.476       .   S
N226       C199 1.299       .   D
C200       C201 1.399       .   D
C200       C205 1.400       .   S
C201       C202 1.396       .   S
C201       H249 1.083       .   S
C202       C203 1.404       .   D
C202       H250 1.083       .   S
C203       C206 1.473       .   S
C203       C204 1.406       .   S
C204       C205 1.397       .   D
C204       H251 1.083       .   S
C205       H252 1.083       .   S
C206       H253 1.082       .   S
C206       N227 1.300       .   D
C207       C270 1.467       .   S
C207       N224 1.357       .   D
C207       C208 1.405       .   S
C208       C209 1.403       .   D
C208       H254 1.083       .   S
C209       H255 1.083       .   S
C209       C210 1.403       .   S
C210       C218 1.404       .   D
C211       C210 1.405       .   S
C211       C212 1.404       .   D
C211       H256 1.083       .   S
C212       H257 1.083       .   S
C213       C212 1.406       .   S
C213       C214 1.401       .   S
C213       C217 1.405       .   D
C214       C215 1.402       .   D
C214       H258 1.083       .   S
C215       H259 1.083       .   S
C215       C216 1.406       .   S
C216       N225 1.361       .   D
C216       C230 1.470       .   S
C217       C218 1.414       .   S
C217       N225 1.364       .   S
C218       N224 1.361       .   S
C219       H260 1.083       .   S
C219       C273 1.474       .   S
C219       N228 1.300       .   D
C220       N229 1.300       .   D
C220       C233 1.473       .   S
C220       H261 1.084       .   S
Cu221      N224 1.903       .   S
Cu221      N225 1.922       .   S
Cu221      N223 1.902       .   S
N222      Cu221 1.924       .   S
N226      N1897 4.429       .   S
N227      N1873 4.228       .   S
N228      N1829 4.374       .   S
N229      N1697 4.224       .   S
C230       C235 1.400       .   D
C231       C230 1.403       .   S
C231       H262 1.084       .   S
C231       C232 1.395       .   D
C232       C233 1.405       .   S
C232       H263 1.083       .   S
C234       C233 1.404       .   D
C234       H264 1.083       .   S
C234       C235 1.397       .   S
C235       H265 1.079       .   S
C236       C241 1.407       .   S
C236       C237 1.403       .   D
C237       C238 1.397       .   S
C237       H266 1.083       .   S
C238       C239 1.404       .   D
C238       H267 1.083       .   S
C239       C240 1.400       .   S
C240       H268 1.077       .   S
C240       C241 1.397       .   D
C241       H269 1.083       .   S
C270       C271 1.398       .   S
C275       C270 1.474       .   D
C271       C272 1.402       .   D
C271       H276 1.083       .   S
C272       H277 1.083       .   S
C273       C272 1.410       .   S
C273       C274 1.402       .   D
C274       H278 1.084       .   S
C274       C275 1.389       .   S
C275       H279 1.083       .   S
C280       C281 1.408       .   S
C280       N315 1.361       .   D
C280       C332 1.475       .   S
C281       C282 1.401       .   D
C281       H335 1.083       .   S
C282       C283 1.400       .   S
C282       H336 1.083       .   S
C284       C283 1.407       .   D
C291       C283 1.404       .   S
C284       C285 1.406       .   S
H337       C284 1.083       .   S
C285       C286 1.405       .   D
C285       H338 1.083       .   S
C286       C287 1.406       .   S
C286       C290 1.404       .   S
C287       H339 1.083       .   S
C287       C288 1.406       .   D
C288       C289 1.403       .   S
C288       H340 1.083       .   S
C289       N316 1.355       .   D
C289       C293 1.462       .   S
C290       C291 1.413       .   D
C290       N316 1.357       .   S
N315       C291 1.367       .   S
C292       H341 1.083       .   S
C292       C329 1.476       .   S
N319       C292 1.299       .   D
C293       C294 1.399       .   D
C293       C298 1.400       .   S
C294       C295 1.396       .   S
C294       H342 1.083       .   S
C295       C296 1.404       .   D
C295       H343 1.083       .   S
C296       C299 1.473       .   S
C296       C297 1.406       .   S
C297       C298 1.397       .   D
C297       H344 1.083       .   S
C298       H345 1.083       .   S
C299       H346 1.082       .   S
C299       N320 1.300       .   D
C300       C363 1.467       .   S
C300       N317 1.357       .   D
C300       C301 1.405       .   S
C301       C302 1.403       .   D
C301       H347 1.083       .   S
C302       H348 1.083       .   S
C302       C303 1.403       .   S
C303       C311 1.404       .   D
C304       C303 1.405       .   S
C304       C305 1.404       .   D
C304       H349 1.083       .   S
C305       H350 1.083       .   S
C306       C305 1.406       .   S
C306       C307 1.401       .   S
C306       C310 1.405       .   D
C307       C308 1.402       .   D
C307       H351 1.083       .   S
C308       H352 1.083       .   S
C308       C309 1.406       .   S
C309       N318 1.361       .   D
C309       C323 1.470       .   S
C310       C311 1.414       .   S
C310       N318 1.364       .   S
C311       N317 1.361       .   S
C312       H353 1.083       .   S
C312       C366 1.474       .   S
C312       N321 1.300       .   D
C313       N322 1.300       .   D
C313       C326 1.473       .   S
C313       H354 1.084       .   S
Cu314      N317 1.903       .   S
Cu314      N318 1.922       .   S
Cu314      N316 1.902       .   S
N315      Cu314 1.924       .   S
N319      N2005 4.428       .   S
N320      N1545 4.373   1_545   S
N321      N1809 4.374       .   S
N322      N1961 4.228       .   S
C323       C328 1.400       .   D
C324       C323 1.403       .   S
C324       H355 1.084       .   S
C324       C325 1.395       .   D
C325       C326 1.405       .   S
C325       H356 1.083       .   S
C327       C326 1.404       .   D
C327       H357 1.083       .   S
C327       C328 1.397       .   S
C328       H358 1.079       .   S
C329       C334 1.407       .   S
C329       C330 1.403       .   D
C330       C331 1.397       .   S
C330       H359 1.083       .   S
C331       C332 1.404       .   D
C331       H360 1.083       .   S
C332       C333 1.400       .   S
C333       H361 1.077       .   S
C333       C334 1.397       .   D
C334       H362 1.083       .   S
C363       C364 1.398       .   S
C368       C363 1.474       .   D
C364       C365 1.402       .   D
C364       H369 1.083       .   S
C365       H370 1.083       .   S
C366       C365 1.410       .   S
C366       C367 1.402       .   D
C367       H371 1.084       .   S
C367       C368 1.389       .   S
C368       H372 1.083       .   S
C373       C374 1.408       .   S
C373       N408 1.361       .   D
C373       C425 1.475       .   S
C374       C375 1.401       .   D
C374       H428 1.083       .   S
C375       C376 1.400       .   S
C375       H429 1.083       .   S
C377       C376 1.407       .   D
C384       C376 1.404       .   S
C377       C378 1.406       .   S
H430       C377 1.083       .   S
C378       C379 1.405       .   D
C378       H431 1.083       .   S
C379       C380 1.406       .   S
C379       C383 1.404       .   S
C380       H432 1.083       .   S
C380       C381 1.406       .   D
C381       C382 1.403       .   S
C381       H433 1.083       .   S
C382       N409 1.355       .   D
C382       C386 1.462       .   S
C383       C384 1.413       .   D
C383       N409 1.357       .   S
N408       C384 1.367       .   S
C385       H434 1.083       .   S
C385       C422 1.476       .   S
N412       C385 1.299       .   D
C386       C387 1.399       .   D
C386       C391 1.400       .   S
C387       C388 1.396       .   S
C387       H435 1.083       .   S
C388       C389 1.404       .   D
C388       H436 1.083       .   S
C389       C392 1.473       .   S
C389       C390 1.406       .   S
C390       C391 1.397       .   D
C390       H437 1.083       .   S
C391       H438 1.083       .   S
C392       H439 1.082       .   S
C392       N413 1.300       .   D
C393       C456 1.467       .   S
C393       N410 1.357       .   D
C393       C394 1.405       .   S
C394       C395 1.403       .   D
C394       H440 1.083       .   S
C395       H441 1.083       .   S
C395       C396 1.403       .   S
C396       C404 1.404       .   D
C397       C396 1.405       .   S
C397       C398 1.404       .   D
C397       H442 1.083       .   S
C398       H443 1.083       .   S
C399       C398 1.406       .   S
C399       C400 1.401       .   S
C399       C403 1.405       .   D
C400       C401 1.402       .   D
C400       H444 1.083       .   S
C401       H445 1.083       .   S
C401       C402 1.406       .   S
C402       N411 1.361       .   D
C402       C416 1.470       .   S
C403       C404 1.414       .   S
C403       N411 1.364       .   S
C404       N410 1.361       .   S
C405       H446 1.083       .   S
C405       C459 1.474       .   S
C405       N414 1.300       .   D
C406       N415 1.300       .   D
C406       C419 1.473       .   S
C406       H447 1.084       .   S
Cu407      N410 1.903       .   S
Cu407      N411 1.922       .   S
Cu407      N409 1.902       .   S
N408      Cu407 1.924       .   S
N412      N2137 4.427       .   S
N413      N2093 4.373       .   S
N414      N2049 4.374       .   S
N415      N1853 4.228       .   S
C416       C421 1.400       .   D
C417       C416 1.403       .   S
C417       H448 1.084       .   S
C417       C418 1.395       .   D
C418       C419 1.405       .   S
C418       H449 1.083       .   S
C420       C419 1.404       .   D
C420       H450 1.083       .   S
C420       C421 1.397       .   S
C421       H451 1.079       .   S
C422       C427 1.407       .   S
C422       C423 1.403       .   D
C423       C424 1.397       .   S
C423       H452 1.083       .   S
C424       C425 1.404       .   D
C424       H453 1.083       .   S
C425       C426 1.400       .   S
C426       H454 1.077       .   S
C426       C427 1.397       .   D
C427       H455 1.083       .   S
C456       C457 1.398       .   S
C461       C456 1.474       .   D
C457       C458 1.402       .   D
C457       H462 1.083       .   S
C458       H463 1.083       .   S
C459       C458 1.410       .   S
C459       C460 1.402       .   D
C460       H464 1.084       .   S
C460       C461 1.389       .   S
C461       H465 1.083       .   S
C466       C467 1.408       .   S
C466       N501 1.361       .   D
C466       C518 1.475       .   S
C467       C468 1.401       .   D
C467       H521 1.083       .   S
C468       C469 1.400       .   S
C468       H522 1.083       .   S
C470       C469 1.407       .   D
C477       C469 1.404       .   S
C470       C471 1.406       .   S
H523       C470 1.083       .   S
C471       C472 1.405       .   D
C471       H524 1.083       .   S
C472       C473 1.406       .   S
C472       C476 1.404       .   S
C473       H525 1.083       .   S
C473       C474 1.406       .   D
C474       C475 1.403       .   S
C474       H526 1.083       .   S
C475       N502 1.355       .   D
C475       C479 1.462       .   S
C476       C477 1.413       .   D
C476       N502 1.357       .   S
N501       C477 1.367       .   S
C478       H527 1.083       .   S
C478       C515 1.476       .   S
N505       C478 1.299       .   D
C479       C480 1.399       .   D
C479       C484 1.400       .   S
C480       C481 1.396       .   S
C480       H528 1.083       .   S
C481       C482 1.404       .   D
C481       H529 1.083       .   S
C482       C485 1.473       .   S
C482       C483 1.406       .   S
C483       C484 1.397       .   D
C483       H530 1.083       .   S
C484       H531 1.083       .   S
C485       H532 1.082       .   S
C485       N506 1.300       .   D
C486       C549 1.467       .   S
C486       N503 1.357       .   D
C486       C487 1.405       .   S
C487       C488 1.403       .   D
C487       H533 1.083       .   S
C488       H534 1.083       .   S
C488       C489 1.403       .   S
C489       C497 1.404       .   D
C490       C489 1.405       .   S
C490       C491 1.404       .   D
C490       H535 1.083       .   S
C491       H536 1.083       .   S
C492       C491 1.406       .   S
C492       C493 1.401       .   S
C492       C496 1.405       .   D
C493       C494 1.402       .   D
C493       H537 1.083       .   S
C494       H538 1.083       .   S
C494       C495 1.406       .   S
C495       N504 1.361       .   D
C495       C509 1.470       .   S
C496       C497 1.414       .   S
C496       N504 1.364       .   S
C497       N503 1.361       .   S
C498       H539 1.083       .   S
C498       C552 1.474       .   S
C498       N507 1.300       .   D
C499       N508 1.300       .   D
C499       C512 1.473       .   S
C499       H540 1.084       .   S
Cu500      N503 1.903       .   S
Cu500      N504 1.922       .   S
Cu500      N502 1.902       .   S
N501      Cu500 1.924       .   S
N505      N2225 4.428       .   S
N506      N1941 4.228       .   S
N507      N2029 4.374   1_556   S
N508      N2161 4.223       .   S
C509       C514 1.400       .   D
C510       C509 1.403       .   S
C510       H541 1.084       .   S
C510       C511 1.395       .   D
C511       C512 1.405       .   S
C511       H542 1.083       .   S
C513       C512 1.404       .   D
C513       H543 1.083       .   S
C513       C514 1.397       .   S
C514       H544 1.079       .   S
C515       C520 1.407       .   S
C515       C516 1.403       .   D
C516       C517 1.397       .   S
C516       H545 1.083       .   S
C517       C518 1.404       .   D
C517       H546 1.083       .   S
C518       C519 1.400       .   S
C519       H547 1.077       .   S
C519       C520 1.397       .   D
C520       H548 1.083       .   S
C549       C550 1.398       .   S
C554       C549 1.474       .   D
C550       C551 1.402       .   D
C550       H555 1.083       .   S
C551       H556 1.083       .   S
C552       C551 1.410       .   S
C552       C553 1.402       .   D
C553       H557 1.084       .   S
C553       C554 1.389       .   S
C554       H558 1.083       .   S
C559       C560 1.408       .   S
C559       N594 1.361       .   D
C559       C611 1.475       .   S
C560       C561 1.401       .   D
C560       H614 1.083       .   S
C561       C562 1.400       .   S
C561       H615 1.083       .   S
C563       C562 1.407       .   D
C570       C562 1.404       .   S
C563       C564 1.406       .   S
H616       C563 1.083       .   S
C564       C565 1.405       .   D
C564       H617 1.083       .   S
C565       C566 1.406       .   S
C565       C569 1.404       .   S
C566       H618 1.083       .   S
C566       C567 1.406       .   D
C567       C568 1.403       .   S
C567       H619 1.083       .   S
C568       N595 1.355       .   D
C568       C572 1.462       .   S
C569       C570 1.413       .   D
C569       N595 1.357       .   S
N594       C570 1.367       .   S
C571       H620 1.083       .   S
C571       C608 1.476       .   S
N598       C571 1.299       .   D
C572       C573 1.399       .   D
C572       C577 1.400       .   S
C573       C574 1.396       .   S
C573       H621 1.083       .   S
C574       C575 1.404       .   D
C574       H622 1.083       .   S
C575       C578 1.473       .   S
C575       C576 1.406       .   S
C576       C577 1.397       .   D
C576       H623 1.083       .   S
C577       H624 1.083       .   S
C578       H625 1.082       .   S
C578       N599 1.300       .   D
C579       C642 1.467       .   S
C579       N596 1.357       .   D
C579       C580 1.405       .   S
C580       C581 1.403       .   D
C580       H626 1.083       .   S
C581       H627 1.083       .   S
C581       C582 1.403       .   S
C582       C590 1.404       .   D
C583       C582 1.405       .   S
C583       C584 1.404       .   D
C583       H628 1.083       .   S
C584       H629 1.083       .   S
C585       C584 1.406       .   S
C585       C586 1.401       .   S
C585       C589 1.405       .   D
C586       C587 1.402       .   D
C586       H630 1.083       .   S
C587       H631 1.083       .   S
C587       C588 1.406       .   S
C588       N597 1.361       .   D
C588       C602 1.470       .   S
C589       C590 1.414       .   S
C589       N597 1.364       .   S
C590       N596 1.361       .   S
C591       H632 1.083       .   S
C591       C645 1.474       .   S
C591       N600 1.300       .   D
C592       N601 1.300       .   D
C592       C605 1.473       .   S
C592       H633 1.084       .   S
Cu593      N596 1.903       .   S
Cu593      N597 1.922       .   S
Cu593      N595 1.902       .   S
N594      Cu593 1.924       .   S
N598      N2293 4.428       .   S
N599      N1589 4.228       .   S
N600      N2269 4.374       .   S
N601      N2181 4.223   1_564   S
C602       C607 1.400       .   D
C603       C602 1.403       .   S
C603       H634 1.084       .   S
C603       C604 1.395       .   D
C604       C605 1.405       .   S
C604       H635 1.083       .   S
C606       C605 1.404       .   D
C606       H636 1.083       .   S
C606       C607 1.397       .   S
C607       H637 1.079       .   S
C608       C613 1.407       .   S
C608       C609 1.403       .   D
C609       C610 1.397       .   S
C609       H638 1.083       .   S
C610       C611 1.404       .   D
C610       H639 1.083       .   S
C611       C612 1.400       .   S
C612       H640 1.077       .   S
C612       C613 1.397       .   D
C613       H641 1.083       .   S
C642       C643 1.398       .   S
C647       C642 1.474       .   D
C643       C644 1.402       .   D
C643       H648 1.083       .   S
C644       H649 1.083       .   S
C645       C644 1.410       .   S
C645       C646 1.402       .   D
C646       H650 1.084       .   S
C646       C647 1.389       .   S
C647       H651 1.083       .   S
C652       C653 1.408       .   S
C652       N687 1.361       .   D
C652       C704 1.475       .   S
C653       C654 1.401       .   D
C653       H707 1.083       .   S
C654       C655 1.400       .   S
C654       H708 1.083       .   S
C656       C655 1.407       .   D
C663       C655 1.404       .   S
C656       C657 1.406       .   S
H709       C656 1.083       .   S
C657       C658 1.405       .   D
C657       H710 1.083       .   S
C658       C659 1.406       .   S
C658       C662 1.404       .   S
C659       H711 1.083       .   S
C659       C660 1.406       .   D
C660       C661 1.403       .   S
C660       H712 1.083       .   S
C661       N688 1.355       .   D
C661       C665 1.462       .   S
C662       C663 1.413       .   D
C662       N688 1.357       .   S
N687       C663 1.367       .   S
C664       H713 1.083       .   S
C664       C701 1.476       .   S
N691       C664 1.299       .   D
C665       C666 1.399       .   D
C665       C670 1.400       .   S
C666       C667 1.396       .   S
C666       H714 1.083       .   S
C667       C668 1.404       .   D
C667       H715 1.083       .   S
C668       C671 1.473       .   S
C668       C669 1.406       .   S
C669       C670 1.397       .   D
C669       H716 1.083       .   S
C670       H717 1.083       .   S
C671       H718 1.082       .   S
C671       N692 1.300       .   D
C672       C735 1.467       .   S
C672       N689 1.357       .   D
C672       C673 1.405       .   S
C673       C674 1.403       .   D
C673       H719 1.083       .   S
C674       H720 1.083       .   S
C674       C675 1.403       .   S
C675       C683 1.404       .   D
C676       C675 1.405       .   S
C676       C677 1.404       .   D
C676       H721 1.083       .   S
C677       H722 1.083       .   S
C678       C677 1.406       .   S
C678       C679 1.401       .   S
C678       C682 1.405       .   D
C679       C680 1.402       .   D
C679       H723 1.083       .   S
C680       H724 1.083       .   S
C680       C681 1.406       .   S
C681       N690 1.361       .   D
C681       C695 1.470       .   S
C682       C683 1.414       .   S
C682       N690 1.364       .   S
C683       N689 1.361       .   S
C684       H725 1.083       .   S
C684       C738 1.474       .   S
C684       N693 1.300       .   D
C685       N694 1.300       .   D
C685       C698 1.473       .   S
C685       H726 1.084       .   S
Cu686      N689 1.903       .   S
Cu686      N690 1.922       .   S
Cu686      N688 1.902       .   S
N687      Cu686 1.924       .   S
N691      N2337 4.428       .   S
N692      N2073 4.373   1_556   S
N693      N2249 4.374   1_556   S
N694      N1721 4.228       .   S
C695       C700 1.400       .   D
C696       C695 1.403       .   S
C696       H727 1.084       .   S
C696       C697 1.395       .   D
C697       C698 1.405       .   S
C697       H728 1.083       .   S
C699       C698 1.404       .   D
C699       H729 1.083       .   S
C699       C700 1.397       .   S
C700       H730 1.079       .   S
C701       C706 1.407       .   S
C701       C702 1.403       .   D
C702       C703 1.397       .   S
C702       H731 1.083       .   S
C703       C704 1.404       .   D
C703       H732 1.083       .   S
C704       C705 1.400       .   S
C705       H733 1.077       .   S
C705       C706 1.397       .   D
C706       H734 1.083       .   S
C735       C736 1.398       .   S
C740       C735 1.474       .   D
C736       C737 1.402       .   D
C736       H741 1.083       .   S
C737       H742 1.083       .   S
C738       C737 1.410       .   S
C738       C739 1.402       .   D
C739       H743 1.084       .   S
C739       C740 1.389       .   S
C740       H744 1.083       .   S
C745       C746 1.408       .   S
C745       N780 1.361       .   D
C745       C797 1.475       .   S
C746       C747 1.401       .   D
C746       H800 1.083       .   S
C747       C748 1.400       .   S
C747       H801 1.083       .   S
C749       C748 1.407       .   D
C756       C748 1.404       .   S
C749       C750 1.406       .   S
H802       C749 1.083       .   S
C750       C751 1.405       .   D
C750       H803 1.083       .   S
C751       C752 1.406       .   S
C751       C755 1.404       .   S
C752       H804 1.083       .   S
C752       C753 1.406       .   D
C753       C754 1.403       .   S
C753       H805 1.083       .   S
C754       N781 1.355       .   D
C754       C758 1.462       .   S
C755       C756 1.413       .   D
C755       N781 1.357       .   S
N780       C756 1.367       .   S
C757       H806 1.083       .   S
C757       C794 1.476       .   S
N784       C757 1.299       .   D
C758       C759 1.399       .   D
C758       C763 1.400       .   S
C759       C760 1.396       .   S
C759       H807 1.083       .   S
C760       C761 1.404       .   D
C760       H808 1.083       .   S
C761       C764 1.473       .   S
C761       C762 1.406       .   S
C762       C763 1.397       .   D
C762       H809 1.083       .   S
C763       H810 1.083       .   S
C764       H811 1.082       .   S
C764       N785 1.300       .   D
C765       C828 1.467       .   S
C765       N782 1.357       .   D
C765       C766 1.405       .   S
C766       C767 1.403       .   D
C766       H812 1.083       .   S
C767       H813 1.083       .   S
C767       C768 1.403       .   S
C768       C776 1.404       .   D
C769       C768 1.405       .   S
C769       C770 1.404       .   D
C769       H814 1.083       .   S
C770       H815 1.083       .   S
C771       C770 1.406       .   S
C771       C772 1.401       .   S
C771       C775 1.405       .   D
C772       C773 1.402       .   D
C772       H816 1.083       .   S
C773       H817 1.083       .   S
C773       C774 1.406       .   S
C774       N783 1.361       .   D
C774       C788 1.470       .   S
C775       C776 1.414       .   S
C775       N783 1.364       .   S
C776       N782 1.361       .   S
C777       H818 1.083       .   S
C777       C831 1.474       .   S
C777       N786 1.300       .   D
C778       N787 1.300       .   D
C778       C791 1.473       .   S
C778       H819 1.084       .   S
Cu779      N782 1.903       .   S
Cu779      N783 1.922       .   S
Cu779      N781 1.902       .   S
N780      Cu779 1.924       .   S
N784      N1633 4.428       .   S
N785      N2469 4.228       .   S
N786      N2381 4.374       .   S
N787      N2445 4.223       .   S
C788       C793 1.400       .   D
C789       C788 1.403       .   S
C789       H820 1.084       .   S
C789       C790 1.395       .   D
C790       C791 1.405       .   S
C790       H821 1.083       .   S
C792       C791 1.404       .   D
C792       H822 1.083       .   S
C792       C793 1.397       .   S
C793       H823 1.079       .   S
C794       C799 1.407       .   S
C794       C795 1.403       .   D
C795       C796 1.397       .   S
C795       H824 1.083       .   S
C796       C797 1.404       .   D
C796       H825 1.083       .   S
C797       C798 1.400       .   S
C798       H826 1.077       .   S
C798       C799 1.397       .   D
C799       H827 1.083       .   S
C828       C829 1.398       .   S
C833       C828 1.474       .   D
C829       C830 1.402       .   D
C829       H834 1.083       .   S
C830       H835 1.083       .   S
C831       C830 1.410       .   S
C831       C832 1.402       .   D
C832       H836 1.084       .   S
C832       C833 1.389       .   S
C833       H837 1.083       .   S
C838       C839 1.408       .   S
C838       N873 1.361       .   D
C838       C890 1.475       .   S
C839       C840 1.401       .   D
C839       H893 1.083       .   S
C840       C841 1.400       .   S
C840       H894 1.083       .   S
C842       C841 1.407       .   D
C849       C841 1.404       .   S
C842       C843 1.406       .   S
H895       C842 1.083       .   S
C843       C844 1.405       .   D
C843       H896 1.083       .   S
C844       C845 1.406       .   S
C844       C848 1.404       .   S
C845       H897 1.083       .   S
C845       C846 1.406       .   D
C846       C847 1.403       .   S
C846       H898 1.083       .   S
C847       N874 1.355       .   D
C847       C851 1.462       .   S
C848       C849 1.413       .   D
C848       N874 1.357       .   S
N873       C849 1.367       .   S
C850       H899 1.083       .   S
C850       C887 1.476       .   S
N877       C850 1.299       .   D
C851       C852 1.399       .   D
C851       C856 1.400       .   S
C852       C853 1.396       .   S
C852       H900 1.083       .   S
C853       C854 1.404       .   D
C853       H901 1.083       .   S
C854       C857 1.473       .   S
C854       C855 1.406       .   S
C855       C856 1.397       .   D
C855       H902 1.083       .   S
C856       H903 1.083       .   S
C857       H904 1.082       .   S
C857       N878 1.300       .   D
C858       C921 1.467       .   S
C858       N875 1.357       .   D
C858       C859 1.405       .   S
C859       C860 1.403       .   D
C859       H905 1.083       .   S
C860       H906 1.083       .   S
C860       C861 1.403       .   S
C861       C869 1.404       .   D
C862       C861 1.405       .   S
C862       C863 1.404       .   D
C862       H907 1.083       .   S
C863       H908 1.083       .   S
C864       C863 1.406       .   S
C864       C865 1.401       .   S
C864       C868 1.405       .   D
C865       C866 1.402       .   D
C865       H909 1.083       .   S
C866       H910 1.083       .   S
C866       C867 1.406       .   S
C867       N876 1.361       .   D
C867       C881 1.470       .   S
C868       C869 1.414       .   S
C868       N876 1.364       .   S
C869       N875 1.361       .   S
C870       H911 1.083       .   S
C870       C924 1.474       .   S
C870       N879 1.300       .   D
C871       N880 1.300       .   D
C871       C884 1.473       .   S
C871       H912 1.084       .   S
Cu872      N875 1.903       .   S
Cu872      N876 1.922       .   S
Cu872      N874 1.902       .   S
N873      Cu872 1.924       .   S
N877      N1765 4.428   1_655   S
N878      N2533 4.373       .   S
N879      N2401 4.374       .   S
N880      N2577 4.228       .   S
C881       C886 1.400       .   D
C882       C881 1.403       .   S
C882       H913 1.084       .   S
C882       C883 1.395       .   D
C883       C884 1.405       .   S
C883       H914 1.083       .   S
C885       C884 1.404       .   D
C885       H915 1.083       .   S
C885       C886 1.397       .   S
C886       H916 1.079       .   S
C887       C892 1.407       .   S
C887       C888 1.403       .   D
C888       C889 1.397       .   S
C888       H917 1.083       .   S
C889       C890 1.404       .   D
C889       H918 1.083       .   S
C890       C891 1.400       .   S
C891       H919 1.077       .   S
C891       C892 1.397       .   D
C892       H920 1.083       .   S
C921       C922 1.398       .   S
C926       C921 1.474       .   D
C922       C923 1.402       .   D
C922       H927 1.083       .   S
C923       H928 1.083       .   S
C924       C923 1.410       .   S
C924       C925 1.402       .   D
C925       H929 1.084       .   S
C925       C926 1.389       .   S
C926       H930 1.083       .   S
C931       C932 1.408       .   S
C931       N966 1.361       .   D
C931       C983 1.475       .   S
C932       C933 1.401       .   D
C932       H986 1.083       .   S
C933       C934 1.400       .   S
C933       H987 1.083       .   S
C935       C934 1.407       .   D
C942       C934 1.404       .   S
C935       C936 1.406       .   S
H988       C935 1.083       .   S
C936       C937 1.405       .   D
C936       H989 1.083       .   S
C937       C938 1.406       .   S
C937       C941 1.404       .   S
C938       H990 1.083       .   S
C938       C939 1.406       .   D
C939       C940 1.403       .   S
C939       H991 1.083       .   S
C940       N967 1.355       .   D
C940       C944 1.462       .   S
C941       C942 1.413       .   D
C941       N967 1.357       .   S
N966       C942 1.367       .   S
C943       H992 1.083       .   S
C943       C980 1.476       .   S
N970       C943 1.299       .   D
C944       C945 1.399       .   D
C944       C949 1.400       .   S
C945       C946 1.396       .   S
C945       H993 1.083       .   S
C946       C947 1.404       .   D
C946       H994 1.083       .   S
C947       C950 1.473       .   S
C947       C948 1.406       .   S
C948       C949 1.397       .   D
C948       H995 1.083       .   S
C949       H996 1.083       .   S
C950       H997 1.082       .   S
C950       N971 1.300       .   D
C951      C1014 1.467       .   S
C951       N968 1.357       .   D
C951       C952 1.405       .   S
C952       C953 1.403       .   D
C952       H998 1.083       .   S
C953       H999 1.083       .   S
C953       C954 1.403       .   S
C954       C962 1.404       .   D
C955       C954 1.405       .   S
C955       C956 1.404       .   D
C955      H1000 1.083       .   S
C956      H1001 1.083       .   S
C957       C956 1.406       .   S
C957       C958 1.401       .   S
C957       C961 1.405       .   D
C958       C959 1.402       .   D
C958      H1002 1.083       .   S
C959      H1003 1.083       .   S
C959       C960 1.406       .   S
C960       N969 1.361       .   D
C960       C974 1.470       .   S
C961       C962 1.414       .   S
C961       N969 1.364       .   S
C962       N968 1.361       .   S
C963      H1004 1.083       .   S
C963      C1017 1.474       .   S
C963       N972 1.300       .   D
C964       N973 1.300       .   D
C964       C977 1.473       .   S
C964      H1005 1.084       .   S
Cu965      N968 1.903       .   S
Cu965      N969 1.922       .   S
Cu965      N967 1.902       .   S
N966      Cu965 1.924       .   S
N970      N1917 4.429   1_655   S
N971      N2513 4.373       .   S
N972      N2601 4.375       .   S
N973      N2665 4.227       .   S
C974       C979 1.400       .   D
C975       C974 1.403       .   S
C975      H1006 1.084       .   S
C975       C976 1.395       .   D
C976       C977 1.405       .   S
C976      H1007 1.083       .   S
C978       C977 1.404       .   D
C978      H1008 1.083       .   S
C978       C979 1.397       .   S
C979      H1009 1.079       .   S
C980       C985 1.407       .   S
C980       C981 1.403       .   D
C981       C982 1.397       .   S
C981      H1010 1.083       .   S
C982       C983 1.404       .   D
C982      H1011 1.083       .   S
C983       C984 1.400       .   S
C984      H1012 1.077       .   S
C984       C985 1.397       .   D
C985      H1013 1.083       .   S
C1014     C1015 1.398       .   S
C1019     C1014 1.474       .   D
C1015     C1016 1.402       .   D
C1015     H1020 1.083       .   S
C1016     H1021 1.083       .   S
C1017     C1016 1.410       .   S
C1017     C1018 1.402       .   D
C1018     H1022 1.084       .   S
C1018     C1019 1.389       .   S
C1019     H1023 1.083       .   S
C1024     C1025 1.408       .   S
C1024     N1059 1.361       .   D
C1024     C1076 1.475       .   S
C1025     C1026 1.401       .   D
C1025     H1079 1.083       .   S
C1026     C1027 1.400       .   S
C1026     H1080 1.083       .   S
C1028     C1027 1.407       .   D
C1035     C1027 1.404       .   S
C1028     C1029 1.406       .   S
H1081     C1028 1.083       .   S
C1029     C1030 1.405       .   D
C1029     H1082 1.083       .   S
C1030     C1031 1.406       .   S
C1030     C1034 1.404       .   S
C1031     H1083 1.083       .   S
C1031     C1032 1.406       .   D
C1032     C1033 1.403       .   S
C1032     H1084 1.083       .   S
C1033     N1060 1.355       .   D
C1033     C1037 1.462       .   S
C1034     C1035 1.413       .   D
C1034     N1060 1.357       .   S
N1059     C1035 1.367       .   S
C1036     H1085 1.083       .   S
C1036     C1073 1.476       .   S
N1063     C1036 1.299       .   D
C1037     C1038 1.399       .   D
C1037     C1042 1.400       .   S
C1038     C1039 1.396       .   S
C1038     H1086 1.083       .   S
C1039     C1040 1.404       .   D
C1039     H1087 1.083       .   S
C1040     C1043 1.473       .   S
C1040     C1041 1.406       .   S
C1041     C1042 1.397       .   D
C1041     H1088 1.083       .   S
C1042     H1089 1.083       .   S
C1043     H1090 1.082       .   S
C1043     N1064 1.300       .   D
C1044     C1107 1.467       .   S
C1044     N1061 1.357       .   D
C1044     C1045 1.405       .   S
C1045     C1046 1.403       .   D
C1045     H1091 1.083       .   S
C1046     H1092 1.083       .   S
C1046     C1047 1.403       .   S
C1047     C1055 1.404       .   D
C1048     C1047 1.405       .   S
C1048     C1049 1.404       .   D
C1048     H1093 1.083       .   S
C1049     H1094 1.083       .   S
C1050     C1049 1.406       .   S
C1050     C1051 1.401       .   S
C1050     C1054 1.405       .   D
C1051     C1052 1.402       .   D
C1051     H1095 1.083       .   S
C1052     H1096 1.083       .   S
C1052     C1053 1.406       .   S
C1053     N1062 1.361       .   D
C1053     C1067 1.470       .   S
C1054     C1055 1.414       .   S
C1054     N1062 1.364       .   S
C1055     N1061 1.361       .   S
C1056     H1097 1.083       .   S
C1056     C1110 1.474       .   S
C1056     N1065 1.300       .   D
C1057     N1066 1.300       .   D
C1057     C1070 1.473       .   S
C1057     H1098 1.084       .   S
Cu1058    N1061 1.903       .   S
Cu1058    N1062 1.922       .   S
Cu1058    N1060 1.902       .   S
N1059    Cu1058 1.924       .   S
N1063     N1985 4.428       .   S
N1064     N2709 4.228       .   S
N1065     N2621 4.375       .   S
N1066     N2425 4.223   1_545   S
C1067     C1072 1.400       .   D
C1068     C1067 1.403       .   S
C1068     H1099 1.084       .   S
C1068     C1069 1.395       .   D
C1069     C1070 1.405       .   S
C1069     H1100 1.083       .   S
C1071     C1070 1.404       .   D
C1071     H1101 1.083       .   S
C1071     C1072 1.397       .   S
C1072     H1102 1.079       .   S
C1073     C1078 1.407       .   S
C1073     C1074 1.403       .   D
C1074     C1075 1.397       .   S
C1074     H1103 1.083       .   S
C1075     C1076 1.404       .   D
C1075     H1104 1.083       .   S
C1076     C1077 1.400       .   S
C1077     H1105 1.077       .   S
C1077     C1078 1.397       .   D
C1078     H1106 1.083       .   S
C1107     C1108 1.398       .   S
C1112     C1107 1.474       .   D
C1108     C1109 1.402       .   D
C1108     H1113 1.083       .   S
C1109     H1114 1.083       .   S
C1110     C1109 1.410       .   S
C1110     C1111 1.402       .   D
C1111     H1115 1.084       .   S
C1111     C1112 1.389       .   S
C1112     H1116 1.083       .   S
C1117     C1118 1.408       .   S
C1117     N1152 1.361       .   D
C1117     C1169 1.475       .   S
C1118     C1119 1.401       .   D
C1118     H1172 1.083       .   S
C1119     C1120 1.400       .   S
C1119     H1173 1.083       .   S
C1121     C1120 1.407       .   D
C1128     C1120 1.404       .   S
C1121     C1122 1.406       .   S
H1174     C1121 1.083       .   S
C1122     C1123 1.405       .   D
C1122     H1175 1.083       .   S
C1123     C1124 1.406       .   S
C1123     C1127 1.404       .   S
C1124     H1176 1.083       .   S
C1124     C1125 1.406       .   D
C1125     C1126 1.403       .   S
C1125     H1177 1.083       .   S
C1126     N1153 1.355       .   D
C1126     C1130 1.462       .   S
C1127     C1128 1.413       .   D
C1127     N1153 1.357       .   S
N1152     C1128 1.367       .   S
C1129     H1178 1.083       .   S
C1129     C1166 1.476       .   S
N1156     C1129 1.299       .   D
C1130     C1131 1.399       .   D
C1130     C1135 1.400       .   S
C1131     C1132 1.396       .   S
C1131     H1179 1.083       .   S
C1132     C1133 1.404       .   D
C1132     H1180 1.083       .   S
C1133     C1136 1.473       .   S
C1133     C1134 1.406       .   S
C1134     C1135 1.397       .   D
C1134     H1181 1.083       .   S
C1135     H1182 1.083       .   S
C1136     H1183 1.082       .   S
C1136     N1157 1.300       .   D
C1137     C1200 1.467       .   S
C1137     N1154 1.357       .   D
C1137     C1138 1.405       .   S
C1138     C1139 1.403       .   D
C1138     H1184 1.083       .   S
C1139     H1185 1.083       .   S
C1139     C1140 1.403       .   S
C1140     C1148 1.404       .   D
C1141     C1140 1.405       .   S
C1141     C1142 1.404       .   D
C1141     H1186 1.083       .   S
C1142     H1187 1.083       .   S
C1143     C1142 1.406       .   S
C1143     C1144 1.401       .   S
C1143     C1147 1.405       .   D
C1144     C1145 1.402       .   D
C1144     H1188 1.083       .   S
C1145     H1189 1.083       .   S
C1145     C1146 1.406       .   S
C1146     N1155 1.361       .   D
C1146     C1160 1.470       .   S
C1147     C1148 1.414       .   S
C1147     N1155 1.364       .   S
C1148     N1154 1.361       .   S
C1149     H1190 1.083       .   S
C1149     C1203 1.474       .   S
C1149     N1158 1.300       .   D
C1150     N1159 1.300       .   D
C1150     C1163 1.473       .   S
C1150     H1191 1.084       .   S
Cu1151    N1154 1.903       .   S
Cu1151    N1155 1.922       .   S
Cu1151    N1153 1.902       .   S
N1152    Cu1151 1.924       .   S
N1156     N2117 4.427   1_655   S
N1157     N2645 4.227       .   S
N1158     N2753 4.374       .   S
N1159     N2797 4.224       .   S
C1160     C1165 1.400       .   D
C1161     C1160 1.403       .   S
C1161     H1192 1.084       .   S
C1161     C1162 1.395       .   D
C1162     C1163 1.405       .   S
C1162     H1193 1.083       .   S
C1164     C1163 1.404       .   D
C1164     H1194 1.083       .   S
C1164     C1165 1.397       .   S
C1165     H1195 1.079       .   S
C1166     C1171 1.407       .   S
C1166     C1167 1.403       .   D
C1167     C1168 1.397       .   S
C1167     H1196 1.083       .   S
C1168     C1169 1.404       .   D
C1168     H1197 1.083       .   S
C1169     C1170 1.400       .   S
C1170     H1198 1.077       .   S
C1170     C1171 1.397       .   D
C1171     H1199 1.083       .   S
C1200     C1201 1.398       .   S
C1205     C1200 1.474       .   D
C1201     C1202 1.402       .   D
C1201     H1206 1.083       .   S
C1202     H1207 1.083       .   S
C1203     C1202 1.410       .   S
C1203     C1204 1.402       .   D
C1204     H1208 1.084       .   S
C1204     C1205 1.389       .   S
C1205     H1209 1.083       .   S
C1210     C1211 1.408       .   S
C1210     N1245 1.361       .   D
C1210     C1262 1.475       .   S
C1211     C1212 1.401       .   D
C1211     H1265 1.083       .   S
C1212     C1213 1.400       .   S
C1212     H1266 1.083       .   S
C1214     C1213 1.407       .   D
C1221     C1213 1.404       .   S
C1214     C1215 1.406       .   S
H1267     C1214 1.083       .   S
C1215     C1216 1.405       .   D
C1215     H1268 1.083       .   S
C1216     C1217 1.406       .   S
C1216     C1220 1.404       .   S
C1217     H1269 1.083       .   S
C1217     C1218 1.406       .   D
C1218     C1219 1.403       .   S
C1218     H1270 1.083       .   S
C1219     N1246 1.355       .   D
C1219     C1223 1.462       .   S
C1220     C1221 1.413       .   D
C1220     N1246 1.357       .   S
N1245     C1221 1.367       .   S
C1222     H1271 1.083       .   S
C1222     C1259 1.476       .   S
N1249     C1222 1.299       .   D
C1223     C1224 1.399       .   D
C1223     C1228 1.400       .   S
C1224     C1225 1.396       .   S
C1224     H1272 1.083       .   S
C1225     C1226 1.404       .   D
C1225     H1273 1.083       .   S
C1226     C1229 1.473       .   S
C1226     C1227 1.406       .   S
C1227     C1228 1.397       .   D
C1227     H1274 1.083       .   S
C1228     H1275 1.083       .   S
C1229     H1276 1.082       .   S
C1229     N1250 1.300       .   D
C1230     C1293 1.467       .   S
C1230     N1247 1.357       .   D
C1230     C1231 1.405       .   S
C1231     C1232 1.403       .   D
C1231     H1277 1.083       .   S
C1232     H1278 1.083       .   S
C1232     C1233 1.403       .   S
C1233     C1241 1.404       .   D
C1234     C1233 1.405       .   S
C1234     C1235 1.404       .   D
C1234     H1279 1.083       .   S
C1235     H1280 1.083       .   S
C1236     C1235 1.406       .   S
C1236     C1237 1.401       .   S
C1236     C1240 1.405       .   D
C1237     C1238 1.402       .   D
C1237     H1281 1.083       .   S
C1238     H1282 1.083       .   S
C1238     C1239 1.406       .   S
C1239     N1248 1.361       .   D
C1239     C1253 1.470       .   S
C1240     C1241 1.414       .   S
C1240     N1248 1.364       .   S
C1241     N1247 1.361       .   S
C1242     H1283 1.083       .   S
C1242     C1296 1.474       .   S
C1242     N1251 1.300       .   D
C1243     N1252 1.300       .   D
C1243     C1256 1.473       .   S
C1243     H1284 1.084       .   S
Cu1244    N1247 1.903       .   S
Cu1244    N1248 1.922       .   S
Cu1244    N1246 1.902       .   S
N1245    Cu1244 1.924       .   S
N1249     N2205 4.428       .   S
N1250     N2841 4.373       .   S
N1251     N2733 4.374   1_556   S
N1252     N2689 4.228       .   S
C1253     C1258 1.400       .   D
C1254     C1253 1.403       .   S
C1254     H1285 1.084       .   S
C1254     C1255 1.395       .   D
C1255     C1256 1.405       .   S
C1255     H1286 1.083       .   S
C1257     C1256 1.404       .   D
C1257     H1287 1.083       .   S
C1257     C1258 1.397       .   S
C1258     H1288 1.079       .   S
C1259     C1264 1.407       .   S
C1259     C1260 1.403       .   D
C1260     C1261 1.397       .   S
C1260     H1289 1.083       .   S
C1261     C1262 1.404       .   D
C1261     H1290 1.083       .   S
C1262     C1263 1.400       .   S
C1263     H1291 1.077       .   S
C1263     C1264 1.397       .   D
C1264     H1292 1.083       .   S
C1293     C1294 1.398       .   S
C1298     C1293 1.474       .   D
C1294     C1295 1.402       .   D
C1294     H1299 1.083       .   S
C1295     H1300 1.083       .   S
C1296     C1295 1.410       .   S
C1296     C1297 1.402       .   D
C1297     H1301 1.084       .   S
C1297     C1298 1.389       .   S
C1298     H1302 1.083       .   S
C1303     C1304 1.408       .   S
C1303     N1338 1.361       .   D
C1303     C1355 1.475       .   S
C1304     C1305 1.401       .   D
C1304     H1358 1.083       .   S
C1305     C1306 1.400       .   S
C1305     H1359 1.083       .   S
C1307     C1306 1.407       .   D
C1314     C1306 1.404       .   S
C1307     C1308 1.406       .   S
H1360     C1307 1.083       .   S
C1308     C1309 1.405       .   D
C1308     H1361 1.083       .   S
C1309     C1310 1.406       .   S
C1309     C1313 1.404       .   S
C1310     H1362 1.083       .   S
C1310     C1311 1.406       .   D
C1311     C1312 1.403       .   S
C1311     H1363 1.083       .   S
C1312     N1339 1.355       .   D
C1312     C1316 1.462       .   S
C1313     C1314 1.413       .   D
C1313     N1339 1.357       .   S
N1338     C1314 1.367       .   S
C1315     H1364 1.083       .   S
C1315     C1352 1.476       .   S
N1342     C1315 1.299       .   D
C1316     C1317 1.399       .   D
C1316     C1321 1.400       .   S
C1317     C1318 1.396       .   S
C1317     H1365 1.083       .   S
C1318     C1319 1.404       .   D
C1318     H1366 1.083       .   S
C1319     C1322 1.473       .   S
C1319     C1320 1.406       .   S
C1320     C1321 1.397       .   D
C1320     H1367 1.083       .   S
C1321     H1368 1.083       .   S
C1322     H1369 1.082       .   S
C1322     N1343 1.300       .   D
C1323     C1386 1.467       .   S
C1323     N1340 1.357       .   D
C1323     C1324 1.405       .   S
C1324     C1325 1.403       .   D
C1324     H1370 1.083       .   S
C1325     H1371 1.083       .   S
C1325     C1326 1.403       .   S
C1326     C1334 1.404       .   D
C1327     C1326 1.405       .   S
C1327     C1328 1.404       .   D
C1327     H1372 1.083       .   S
C1328     H1373 1.083       .   S
C1329     C1328 1.406       .   S
C1329     C1330 1.401       .   S
C1329     C1333 1.405       .   D
C1330     C1331 1.402       .   D
C1330     H1374 1.083       .   S
C1331     H1375 1.083       .   S
C1331     C1332 1.406       .   S
C1332     N1341 1.361       .   D
C1332     C1346 1.470       .   S
C1333     C1334 1.414       .   S
C1333     N1341 1.364       .   S
C1334     N1340 1.361       .   S
C1335     H1376 1.083       .   S
C1335     C1389 1.474       .   S
C1335     N1344 1.300       .   D
C1336     N1345 1.300       .   D
C1336     C1349 1.473       .   S
C1336     H1377 1.084       .   S
Cu1337    N1340 1.903       .   S
Cu1337    N1341 1.922       .   S
Cu1337    N1339 1.902       .   S
N1338    Cu1337 1.924       .   S
N1342     N2313 4.428       .   S
N1343     N2821 4.373   1_564   S
N1344     N2865 4.374       .   S
N1345     N2489 4.228       .   S
C1346     C1351 1.400       .   D
C1347     C1346 1.403       .   S
C1347     H1378 1.084       .   S
C1347     C1348 1.395       .   D
C1348     C1349 1.405       .   S
C1348     H1379 1.083       .   S
C1350     C1349 1.404       .   D
C1350     H1380 1.083       .   S
C1350     C1351 1.397       .   S
C1351     H1381 1.079       .   S
C1352     C1357 1.407       .   S
C1352     C1353 1.403       .   D
C1353     C1354 1.397       .   S
C1353     H1382 1.083       .   S
C1354     C1355 1.404       .   D
C1354     H1383 1.083       .   S
C1355     C1356 1.400       .   S
C1356     H1384 1.077       .   S
C1356     C1357 1.397       .   D
C1357     H1385 1.083       .   S
C1386     C1387 1.398       .   S
C1391     C1386 1.474       .   D
C1387     C1388 1.402       .   D
C1387     H1392 1.083       .   S
C1388     H1393 1.083       .   S
C1389     C1388 1.410       .   S
C1389     C1390 1.402       .   D
C1390     H1394 1.084       .   S
C1390     C1391 1.389       .   S
C1391     H1395 1.083       .   S
C1396     C1397 1.408       .   S
C1396     N1431 1.361       .   D
C1396     C1448 1.475       .   S
C1397     C1398 1.401       .   D
C1397     H1451 1.083       .   S
C1398     C1399 1.400       .   S
C1398     H1452 1.083       .   S
C1400     C1399 1.407       .   D
C1407     C1399 1.404       .   S
C1400     C1401 1.406       .   S
H1453     C1400 1.083       .   S
C1401     C1402 1.405       .   D
C1401     H1454 1.083       .   S
C1402     C1403 1.406       .   S
C1402     C1406 1.404       .   S
C1403     H1455 1.083       .   S
C1403     C1404 1.406       .   D
C1404     C1405 1.403       .   S
C1404     H1456 1.083       .   S
C1405     N1432 1.355       .   D
C1405     C1409 1.462       .   S
C1406     C1407 1.413       .   D
C1406     N1432 1.357       .   S
N1431     C1407 1.367       .   S
C1408     H1457 1.083       .   S
C1408     C1445 1.476       .   S
N1435     C1408 1.299       .   D
C1409     C1410 1.399       .   D
C1409     C1414 1.400       .   S
C1410     C1411 1.396       .   S
C1410     H1458 1.083       .   S
C1411     C1412 1.404       .   D
C1411     H1459 1.083       .   S
C1412     C1415 1.473       .   S
C1412     C1413 1.406       .   S
C1413     C1414 1.397       .   D
C1413     H1460 1.083       .   S
C1414     H1461 1.083       .   S
C1415     H1462 1.082       .   S
C1415     N1436 1.300       .   D
C1416     C1479 1.467       .   S
C1416     N1433 1.357       .   D
C1416     C1417 1.405       .   S
C1417     C1418 1.403       .   D
C1417     H1463 1.083       .   S
C1418     H1464 1.083       .   S
C1418     C1419 1.403       .   S
C1419     C1427 1.404       .   D
C1420     C1419 1.405       .   S
C1420     C1421 1.404       .   D
C1420     H1465 1.083       .   S
C1421     H1466 1.083       .   S
C1422     C1421 1.406       .   S
C1422     C1423 1.401       .   S
C1422     C1426 1.405       .   D
C1423     C1424 1.402       .   D
C1423     H1467 1.083       .   S
C1424     H1468 1.083       .   S
C1424     C1425 1.406       .   S
C1425     N1434 1.361       .   D
C1425     C1439 1.470       .   S
C1426     C1427 1.414       .   S
C1426     N1434 1.364       .   S
C1427     N1433 1.361       .   S
C1428     H1469 1.083       .   S
C1428     C1482 1.474       .   S
C1428     N1437 1.300       .   D
C1429     N1438 1.300       .   D
C1429     C1442 1.473       .   S
C1429     H1470 1.084       .   S
Cu1430    N1433 1.903       .   S
Cu1430    N1434 1.922       .   S
Cu1430    N1432 1.902       .   S
N1431    Cu1430 1.924       .   S
N1435     N2357 4.428   1_655   S
N1436     N2557 4.228       .   S
N1437     N2885 4.374   1_556   S
N1438     N2777 4.224   1_556   S
C1439     C1444 1.400       .   D
C1440     C1439 1.403       .   S
C1440     H1471 1.084       .   S
C1440     C1441 1.395       .   D
C1441     C1442 1.405       .   S
C1441     H1472 1.083       .   S
C1443     C1442 1.404       .   D
C1443     H1473 1.083       .   S
C1443     C1444 1.397       .   S
C1444     H1474 1.079       .   S
C1445     C1450 1.407       .   S
C1445     C1446 1.403       .   D
C1446     C1447 1.397       .   S
C1446     H1475 1.083       .   S
C1447     C1448 1.404       .   D
C1447     H1476 1.083       .   S
C1448     C1449 1.400       .   S
C1449     H1477 1.077       .   S
C1449     C1450 1.397       .   D
C1450     H1478 1.083       .   S
C1479     C1480 1.398       .   S
C1484     C1479 1.474       .   D
C1480     C1481 1.402       .   D
C1480     H1485 1.083       .   S
C1481     H1486 1.083       .   S
C1482     C1481 1.410       .   S
C1482     C1483 1.402       .   D
C1483     H1487 1.084       .   S
C1483     C1484 1.389       .   S
C1484     H1488 1.083       .   S
C2853     C2856 1.388       .   S
C2853     C2858 1.388       .   S
C2853     C2873 1.419       .   D
C2854     H2867 1.140       .   S
C2854     C2856 1.388       .   S
C2854     C2875 1.419       .   D
C2855     H2870 1.140       .   S
C2855     C2858 1.388       .   D
C2855     C2874 1.419       .   S
C2856     C2857 1.410       .   D
C2857     C2866 1.393       .   S
C2857     H2893 1.140       .   S
C2858     C2859 1.410       .   S
C2859     C2866 1.393       .   D
C2859     H2894 1.140       .   S
C2860     C2866 1.485       .   S
C2860     C2861 1.413       .   S
C2860     C2863 1.413       .   D
C2861     C2862 1.402       .   S
C2861     H2868 1.140       .   S
C2862     N2865 1.397       .   S
C2862     O2869 1.140       .   D
C2863     C2864 1.402       .   S
C2863     H2871 1.140       .   S
C2864     N2865 1.397       .   S
C2864     O2872 1.140       .   D
C2873     C2876 1.388       .   S
C2873     C2878 1.388       .   S
C2874     H2887 1.140       .   S
C2874     C2876 1.388       .   D
C2875     H2890 1.140       .   S
C2875     C2878 1.388       .   S
C2876     C2877 1.410       .   S
C2877     C2886 1.393       .   D
C2877     H2895 1.140       .   S
C2878     C2879 1.410       .   D
C2879     C2886 1.393       .   S
C2879     H2896 1.140       .   S
C2880     C2886 1.485       .   S
C2880     C2881 1.413       .   D
C2880     C2883 1.413       .   S
C2881     C2882 1.402       .   S
C2881     H2888 1.140       .   S
C2882     N2885 1.397       .   S
C2882     O2889 1.140       .   D
C2883     C2884 1.402       .   S
C2883     H2891 1.140       .   S
C2884     N2885 1.397       .   S
C2884     O2892 1.140       .   D
C2809     C2812 1.388       .   S
C2809     C2814 1.388       .   S
C2809     C2829 1.419       .   D
C2810     H2823 1.140       .   S
C2810     C2812 1.388       .   S
C2810     C2831 1.419       .   D
C2811     H2826 1.140       .   S
C2811     C2814 1.388       .   D
C2811     C2830 1.419       .   S
C2812     C2813 1.410       .   D
C2813     C2822 1.393       .   S
C2813     H2849 1.140       .   S
C2814     C2815 1.410       .   S
C2815     C2822 1.393       .   D
C2815     H2850 1.140       .   S
C2816     C2822 1.485       .   S
C2816     C2817 1.413       .   S
C2816     C2819 1.413       .   D
C2817     C2818 1.402       .   S
C2817     H2824 1.140       .   S
C2818     N2821 1.397       .   S
C2818     O2825 1.140       .   D
C2819     C2820 1.402       .   S
C2819     H2827 1.140       .   S
C2820     N2821 1.397       .   S
C2820     O2828 1.140       .   D
C2829     C2832 1.388       .   S
C2829     C2834 1.388       .   S
C2830     H2843 1.140       .   S
C2830     C2832 1.388       .   D
C2831     H2846 1.140       .   S
C2831     C2834 1.388       .   S
C2832     C2833 1.410       .   S
C2833     C2842 1.393       .   D
C2833     H2851 1.140       .   S
C2834     C2835 1.410       .   D
C2835     C2842 1.393       .   S
C2835     H2852 1.140       .   S
C2836     C2842 1.485       .   S
C2836     C2837 1.413       .   D
C2836     C2839 1.413       .   S
C2837     C2838 1.402       .   S
C2837     H2844 1.140       .   S
C2838     N2841 1.397       .   S
C2838     O2845 1.140       .   D
C2839     C2840 1.402       .   S
C2839     H2847 1.140       .   S
C2840     N2841 1.397       .   S
C2840     O2848 1.140       .   D
C2765     C2768 1.388       .   S
C2765     C2770 1.388       .   S
C2765     C2785 1.419       .   D
C2766     H2779 1.140       .   S
C2766     C2768 1.388       .   S
C2766     C2787 1.419       .   D
C2767     H2782 1.140       .   S
C2767     C2770 1.388       .   D
C2767     C2786 1.419       .   S
C2768     C2769 1.410       .   D
C2769     C2778 1.393       .   S
C2769     H2805 1.140       .   S
C2770     C2771 1.410       .   S
C2771     C2778 1.393       .   D
C2771     H2806 1.140       .   S
C2772     C2778 1.485       .   S
C2772     C2773 1.413       .   S
C2772     C2775 1.413       .   D
C2773     C2774 1.402       .   S
C2773     H2780 1.140       .   S
C2774     N2777 1.397       .   S
C2774     O2781 1.140       .   D
C2775     C2776 1.402       .   S
C2775     H2783 1.140       .   S
C2776     N2777 1.397       .   S
C2776     O2784 1.140       .   D
C2785     C2788 1.388       .   S
C2785     C2790 1.388       .   S
C2786     H2799 1.140       .   S
C2786     C2788 1.388       .   D
C2787     H2802 1.140       .   S
C2787     C2790 1.388       .   S
C2788     C2789 1.410       .   S
C2789     C2798 1.393       .   D
C2789     H2807 1.140       .   S
C2790     C2791 1.410       .   D
C2791     C2798 1.393       .   S
C2791     H2808 1.140       .   S
C2792     C2798 1.485       .   S
C2792     C2793 1.413       .   D
C2792     C2795 1.413       .   S
C2793     C2794 1.402       .   S
C2793     H2800 1.140       .   S
C2794     N2797 1.397       .   S
C2794     O2801 1.140       .   D
C2795     C2796 1.402       .   S
C2795     H2803 1.140       .   S
C2796     N2797 1.397       .   S
C2796     O2804 1.140       .   D
C2721     C2724 1.388       .   S
C2721     C2726 1.388       .   S
C2721     C2741 1.419       .   D
C2722     H2735 1.140       .   S
C2722     C2724 1.388       .   S
C2722     C2743 1.419       .   D
C2723     H2738 1.140       .   S
C2723     C2726 1.388       .   D
C2723     C2742 1.419       .   S
C2724     C2725 1.410       .   D
C2725     C2734 1.393       .   S
C2725     H2761 1.140       .   S
C2726     C2727 1.410       .   S
C2727     C2734 1.393       .   D
C2727     H2762 1.140       .   S
C2728     C2734 1.485       .   S
C2728     C2729 1.413       .   S
C2728     C2731 1.413       .   D
C2729     C2730 1.402       .   S
C2729     H2736 1.140       .   S
C2730     N2733 1.397       .   S
C2730     O2737 1.140       .   D
C2731     C2732 1.402       .   S
C2731     H2739 1.140       .   S
C2732     N2733 1.397       .   S
C2732     O2740 1.140       .   D
C2741     C2744 1.388       .   S
C2741     C2746 1.388       .   S
C2742     H2755 1.140       .   S
C2742     C2744 1.388       .   D
C2743     H2758 1.140       .   S
C2743     C2746 1.388       .   S
C2744     C2745 1.410       .   S
C2745     C2754 1.393       .   D
C2745     H2763 1.140       .   S
C2746     C2747 1.410       .   D
C2747     C2754 1.393       .   S
C2747     H2764 1.140       .   S
C2748     C2754 1.485       .   S
C2748     C2749 1.413       .   D
C2748     C2751 1.413       .   S
C2749     C2750 1.402       .   S
C2749     H2756 1.140       .   S
C2750     N2753 1.397       .   S
C2750     O2757 1.140       .   D
C2751     C2752 1.402       .   S
C2751     H2759 1.140       .   S
C2752     N2753 1.397       .   S
C2752     O2760 1.140       .   D
C2677     C2680 1.388       .   S
C2677     C2682 1.388       .   S
C2677     C2697 1.419       .   D
C2678     H2691 1.140       .   S
C2678     C2680 1.388       .   S
C2678     C2699 1.419       .   D
C2679     H2694 1.140       .   S
C2679     C2682 1.388       .   D
C2679     C2698 1.419       .   S
C2680     C2681 1.410       .   D
C2681     C2690 1.393       .   S
C2681     H2717 1.140       .   S
C2682     C2683 1.410       .   S
C2683     C2690 1.393       .   D
C2683     H2718 1.140       .   S
C2684     C2690 1.485       .   S
C2684     C2685 1.413       .   S
C2684     C2687 1.413       .   D
C2685     C2686 1.402       .   S
C2685     H2692 1.140       .   S
C2686     N2689 1.397       .   S
C2686     O2693 1.140       .   D
C2687     C2688 1.402       .   S
C2687     H2695 1.140       .   S
C2688     N2689 1.397       .   S
C2688     O2696 1.140       .   D
C2697     C2700 1.388       .   S
C2697     C2702 1.388       .   S
C2698     H2711 1.140       .   S
C2698     C2700 1.388       .   D
C2699     H2714 1.140       .   S
C2699     C2702 1.388       .   S
C2700     C2701 1.410       .   S
C2701     C2710 1.393       .   D
C2701     H2719 1.140       .   S
C2702     C2703 1.410       .   D
C2703     C2710 1.393       .   S
C2703     H2720 1.140       .   S
C2704     C2710 1.485       .   S
C2704     C2705 1.413       .   D
C2704     C2707 1.413       .   S
C2705     C2706 1.402       .   S
C2705     H2712 1.140       .   S
C2706     N2709 1.397       .   S
C2706     O2713 1.140       .   D
C2707     C2708 1.402       .   S
C2707     H2715 1.140       .   S
C2708     N2709 1.397       .   S
C2708     O2716 1.140       .   D
C2633     C2636 1.388       .   S
C2633     C2638 1.388       .   S
C2633     C2653 1.419       .   D
C2634     H2647 1.140       .   S
C2634     C2636 1.388       .   S
C2634     C2655 1.419       .   D
C2635     H2650 1.140       .   S
C2635     C2638 1.388       .   D
C2635     C2654 1.419       .   S
C2636     C2637 1.410       .   D
C2637     C2646 1.393       .   S
C2637     H2673 1.140       .   S
C2638     C2639 1.410       .   S
C2639     C2646 1.393       .   D
C2639     H2674 1.140       .   S
C2640     C2646 1.485       .   S
C2640     C2641 1.413       .   S
C2640     C2643 1.413       .   D
C2641     C2642 1.402       .   S
C2641     H2648 1.140       .   S
C2642     N2645 1.397       .   S
C2642     O2649 1.140       .   D
C2643     C2644 1.402       .   S
C2643     H2651 1.140       .   S
C2644     N2645 1.397       .   S
C2644     O2652 1.140       .   D
C2653     C2656 1.388       .   S
C2653     C2658 1.388       .   S
C2654     H2667 1.140       .   S
C2654     C2656 1.388       .   D
C2655     H2670 1.140       .   S
C2655     C2658 1.388       .   S
C2656     C2657 1.410       .   S
C2657     C2666 1.393       .   D
C2657     H2675 1.140       .   S
C2658     C2659 1.410       .   D
C2659     C2666 1.393       .   S
C2659     H2676 1.140       .   S
C2660     C2666 1.485       .   S
C2660     C2661 1.413       .   D
C2660     C2663 1.413       .   S
C2661     C2662 1.402       .   S
C2661     H2668 1.140       .   S
C2662     N2665 1.397       .   S
C2662     O2669 1.140       .   D
C2663     C2664 1.402       .   S
C2663     H2671 1.140       .   S
C2664     N2665 1.397       .   S
C2664     O2672 1.140       .   D
C2589     C2592 1.388       .   S
C2589     C2594 1.388       .   S
C2589     C2609 1.419       .   D
C2590     H2603 1.140       .   S
C2590     C2592 1.388       .   S
C2590     C2611 1.419       .   D
C2591     H2606 1.140       .   S
C2591     C2594 1.388       .   D
C2591     C2610 1.419       .   S
C2592     C2593 1.410       .   D
C2593     C2602 1.393       .   S
C2593     H2629 1.140       .   S
C2594     C2595 1.410       .   S
C2595     C2602 1.393       .   D
C2595     H2630 1.140       .   S
C2596     C2602 1.485       .   S
C2596     C2597 1.413       .   S
C2596     C2599 1.413       .   D
C2597     C2598 1.402       .   S
C2597     H2604 1.140       .   S
C2598     N2601 1.397       .   S
C2598     O2605 1.140       .   D
C2599     C2600 1.402       .   S
C2599     H2607 1.140       .   S
C2600     N2601 1.397       .   S
C2600     O2608 1.140       .   D
C2609     C2612 1.388       .   S
C2609     C2614 1.388       .   S
C2610     H2623 1.140       .   S
C2610     C2612 1.388       .   D
C2611     H2626 1.140       .   S
C2611     C2614 1.388       .   S
C2612     C2613 1.410       .   S
C2613     C2622 1.393       .   D
C2613     H2631 1.140       .   S
C2614     C2615 1.410       .   D
C2615     C2622 1.393       .   S
C2615     H2632 1.140       .   S
C2616     C2622 1.485       .   S
C2616     C2617 1.413       .   D
C2616     C2619 1.413       .   S
C2617     C2618 1.402       .   S
C2617     H2624 1.140       .   S
C2618     N2621 1.397       .   S
C2618     O2625 1.140       .   D
C2619     C2620 1.402       .   S
C2619     H2627 1.140       .   S
C2620     N2621 1.397       .   S
C2620     O2628 1.140       .   D
C2545     C2548 1.388       .   S
C2545     C2550 1.388       .   S
C2545     C2565 1.419       .   D
C2546     H2559 1.140       .   S
C2546     C2548 1.388       .   S
C2546     C2567 1.419       .   D
C2547     H2562 1.140       .   S
C2547     C2550 1.388       .   D
C2547     C2566 1.419       .   S
C2548     C2549 1.410       .   D
C2549     C2558 1.393       .   S
C2549     H2585 1.140       .   S
C2550     C2551 1.410       .   S
C2551     C2558 1.393       .   D
C2551     H2586 1.140       .   S
C2552     C2558 1.485       .   S
C2552     C2553 1.413       .   S
C2552     C2555 1.413       .   D
C2553     C2554 1.402       .   S
C2553     H2560 1.140       .   S
C2554     N2557 1.397       .   S
C2554     O2561 1.140       .   D
C2555     C2556 1.402       .   S
C2555     H2563 1.140       .   S
C2556     N2557 1.397       .   S
C2556     O2564 1.140       .   D
C2565     C2568 1.388       .   S
C2565     C2570 1.388       .   S
C2566     H2579 1.140       .   S
C2566     C2568 1.388       .   D
C2567     H2582 1.140       .   S
C2567     C2570 1.388       .   S
C2568     C2569 1.410       .   S
C2569     C2578 1.393       .   D
C2569     H2587 1.140       .   S
C2570     C2571 1.410       .   D
C2571     C2578 1.393       .   S
C2571     H2588 1.140       .   S
C2572     C2578 1.485       .   S
C2572     C2573 1.413       .   D
C2572     C2575 1.413       .   S
C2573     C2574 1.402       .   S
C2573     H2580 1.140       .   S
C2574     N2577 1.397       .   S
C2574     O2581 1.140       .   D
C2575     C2576 1.402       .   S
C2575     H2583 1.140       .   S
C2576     N2577 1.397       .   S
C2576     O2584 1.140       .   D
C2501     C2504 1.388       .   S
C2501     C2506 1.388       .   S
C2501     C2521 1.419       .   D
C2502     H2515 1.140       .   S
C2502     C2504 1.388       .   S
C2502     C2523 1.419       .   D
C2503     H2518 1.140       .   S
C2503     C2506 1.388       .   D
C2503     C2522 1.419       .   S
C2504     C2505 1.410       .   D
C2505     C2514 1.393       .   S
C2505     H2541 1.140       .   S
C2506     C2507 1.410       .   S
C2507     C2514 1.393       .   D
C2507     H2542 1.140       .   S
C2508     C2514 1.485       .   S
C2508     C2509 1.413       .   S
C2508     C2511 1.413       .   D
C2509     C2510 1.402       .   S
C2509     H2516 1.140       .   S
C2510     N2513 1.397       .   S
C2510     O2517 1.140       .   D
C2511     C2512 1.402       .   S
C2511     H2519 1.140       .   S
C2512     N2513 1.397       .   S
C2512     O2520 1.140       .   D
C2521     C2524 1.388       .   S
C2521     C2526 1.388       .   S
C2522     H2535 1.140       .   S
C2522     C2524 1.388       .   D
C2523     H2538 1.140       .   S
C2523     C2526 1.388       .   S
C2524     C2525 1.410       .   S
C2525     C2534 1.393       .   D
C2525     H2543 1.140       .   S
C2526     C2527 1.410       .   D
C2527     C2534 1.393       .   S
C2527     H2544 1.140       .   S
C2528     C2534 1.485       .   S
C2528     C2529 1.413       .   D
C2528     C2531 1.413       .   S
C2529     C2530 1.402       .   S
C2529     H2536 1.140       .   S
C2530     N2533 1.397       .   S
C2530     O2537 1.140       .   D
C2531     C2532 1.402       .   S
C2531     H2539 1.140       .   S
C2532     N2533 1.397       .   S
C2532     O2540 1.140       .   D
C2457     C2460 1.388       .   S
C2457     C2462 1.388       .   S
C2457     C2477 1.419       .   D
C2458     H2471 1.140       .   S
C2458     C2460 1.388       .   S
C2458     C2479 1.419       .   D
C2459     H2474 1.140       .   S
C2459     C2462 1.388       .   D
C2459     C2478 1.419       .   S
C2460     C2461 1.410       .   D
C2461     C2470 1.393       .   S
C2461     H2497 1.140       .   S
C2462     C2463 1.410       .   S
C2463     C2470 1.393       .   D
C2463     H2498 1.140       .   S
C2464     C2470 1.485       .   S
C2464     C2465 1.413       .   S
C2464     C2467 1.413       .   D
C2465     C2466 1.402       .   S
C2465     H2472 1.140       .   S
C2466     N2469 1.397       .   S
C2466     O2473 1.140       .   D
C2467     C2468 1.402       .   S
C2467     H2475 1.140       .   S
C2468     N2469 1.397       .   S
C2468     O2476 1.140       .   D
C2477     C2480 1.388       .   S
C2477     C2482 1.388       .   S
C2478     H2491 1.140       .   S
C2478     C2480 1.388       .   D
C2479     H2494 1.140       .   S
C2479     C2482 1.388       .   S
C2480     C2481 1.410       .   S
C2481     C2490 1.393       .   D
C2481     H2499 1.140       .   S
C2482     C2483 1.410       .   D
C2483     C2490 1.393       .   S
C2483     H2500 1.140       .   S
C2484     C2490 1.485       .   S
C2484     C2485 1.413       .   D
C2484     C2487 1.413       .   S
C2485     C2486 1.402       .   S
C2485     H2492 1.140       .   S
C2486     N2489 1.397       .   S
C2486     O2493 1.140       .   D
C2487     C2488 1.402       .   S
C2487     H2495 1.140       .   S
C2488     N2489 1.397       .   S
C2488     O2496 1.140       .   D
C2413     C2416 1.388       .   S
C2413     C2418 1.388       .   S
C2413     C2433 1.419       .   D
C2414     H2427 1.140       .   S
C2414     C2416 1.388       .   S
C2414     C2435 1.419       .   D
C2415     H2430 1.140       .   S
C2415     C2418 1.388       .   D
C2415     C2434 1.419       .   S
C2416     C2417 1.410       .   D
C2417     C2426 1.393       .   S
C2417     H2453 1.140       .   S
C2418     C2419 1.410       .   S
C2419     C2426 1.393       .   D
C2419     H2454 1.140       .   S
C2420     C2426 1.485       .   S
C2420     C2421 1.413       .   S
C2420     C2423 1.413       .   D
C2421     C2422 1.402       .   S
C2421     H2428 1.140       .   S
C2422     N2425 1.397       .   S
C2422     O2429 1.140       .   D
C2423     C2424 1.402       .   S
C2423     H2431 1.140       .   S
C2424     N2425 1.397       .   S
C2424     O2432 1.140       .   D
C2433     C2436 1.388       .   S
C2433     C2438 1.388       .   S
C2434     H2447 1.140       .   S
C2434     C2436 1.388       .   D
C2435     H2450 1.140       .   S
C2435     C2438 1.388       .   S
C2436     C2437 1.410       .   S
C2437     C2446 1.393       .   D
C2437     H2455 1.140       .   S
C2438     C2439 1.410       .   D
C2439     C2446 1.393       .   S
C2439     H2456 1.140       .   S
C2440     C2446 1.485       .   S
C2440     C2441 1.413       .   D
C2440     C2443 1.413       .   S
C2441     C2442 1.402       .   S
C2441     H2448 1.140       .   S
C2442     N2445 1.397       .   S
C2442     O2449 1.140       .   D
C2443     C2444 1.402       .   S
C2443     H2451 1.140       .   S
C2444     N2445 1.397       .   S
C2444     O2452 1.140       .   D
C2369     C2372 1.388       .   S
C2369     C2374 1.388       .   S
C2369     C2389 1.419       .   D
C2370     H2383 1.140       .   S
C2370     C2372 1.388       .   S
C2370     C2391 1.419       .   D
C2371     H2386 1.140       .   S
C2371     C2374 1.388       .   D
C2371     C2390 1.419       .   S
C2372     C2373 1.410       .   D
C2373     C2382 1.393       .   S
C2373     H2409 1.140       .   S
C2374     C2375 1.410       .   S
C2375     C2382 1.393       .   D
C2375     H2410 1.140       .   S
C2376     C2382 1.485       .   S
C2376     C2377 1.413       .   S
C2376     C2379 1.413       .   D
C2377     C2378 1.402       .   S
C2377     H2384 1.140       .   S
C2378     N2381 1.397       .   S
C2378     O2385 1.140       .   D
C2379     C2380 1.402       .   S
C2379     H2387 1.140       .   S
C2380     N2381 1.397       .   S
C2380     O2388 1.140       .   D
C2389     C2392 1.388       .   S
C2389     C2394 1.388       .   S
C2390     H2403 1.140       .   S
C2390     C2392 1.388       .   D
C2391     H2406 1.140       .   S
C2391     C2394 1.388       .   S
C2392     C2393 1.410       .   S
C2393     C2402 1.393       .   D
C2393     H2411 1.140       .   S
C2394     C2395 1.410       .   D
C2395     C2402 1.393       .   S
C2395     H2412 1.140       .   S
C2396     C2402 1.485       .   S
C2396     C2397 1.413       .   D
C2396     C2399 1.413       .   S
C2397     C2398 1.402       .   S
C2397     H2404 1.140       .   S
C2398     N2401 1.397       .   S
C2398     O2405 1.140       .   D
C2399     C2400 1.402       .   S
C2399     H2407 1.140       .   S
C2400     N2401 1.397       .   S
C2400     O2408 1.140       .   D
C2325     C2328 1.388       .   S
C2325     C2330 1.388       .   S
C2325     C2345 1.419       .   D
C2326     H2339 1.140       .   S
C2326     C2328 1.388       .   S
C2326     C2347 1.419       .   D
C2327     H2342 1.140       .   S
C2327     C2330 1.388       .   D
C2327     C2346 1.419       .   S
C2328     C2329 1.410       .   D
C2329     C2338 1.393       .   S
C2329     H2365 1.140       .   S
C2330     C2331 1.410       .   S
C2331     C2338 1.393       .   D
C2331     H2366 1.140       .   S
C2332     C2338 1.485       .   S
C2332     C2333 1.413       .   S
C2332     C2335 1.413       .   D
C2333     C2334 1.402       .   S
C2333     H2340 1.140       .   S
C2334     N2337 1.397       .   S
C2334     O2341 1.140       .   D
C2335     C2336 1.402       .   S
C2335     H2343 1.140       .   S
C2336     N2337 1.397       .   S
C2336     O2344 1.140       .   D
C2345     C2348 1.388       .   S
C2345     C2350 1.388       .   S
C2346     H2359 1.140       .   S
C2346     C2348 1.388       .   D
C2347     H2362 1.140       .   S
C2347     C2350 1.388       .   S
C2348     C2349 1.410       .   S
C2349     C2358 1.393       .   D
C2349     H2367 1.140       .   S
C2350     C2351 1.410       .   D
C2351     C2358 1.393       .   S
C2351     H2368 1.140       .   S
C2352     C2358 1.485       .   S
C2352     C2353 1.413       .   D
C2352     C2355 1.413       .   S
C2353     C2354 1.402       .   S
C2353     H2360 1.140       .   S
C2354     N2357 1.397       .   S
C2354     O2361 1.140       .   D
C2355     C2356 1.402       .   S
C2355     H2363 1.140       .   S
C2356     N2357 1.397       .   S
C2356     O2364 1.140       .   D
C2281     C2284 1.388       .   S
C2281     C2286 1.388       .   S
C2281     C2301 1.419       .   D
C2282     H2295 1.140       .   S
C2282     C2284 1.388       .   S
C2282     C2303 1.419       .   D
C2283     H2298 1.140       .   S
C2283     C2286 1.388       .   D
C2283     C2302 1.419       .   S
C2284     C2285 1.410       .   D
C2285     C2294 1.393       .   S
C2285     H2321 1.140       .   S
C2286     C2287 1.410       .   S
C2287     C2294 1.393       .   D
C2287     H2322 1.140       .   S
C2288     C2294 1.485       .   S
C2288     C2289 1.413       .   S
C2288     C2291 1.413       .   D
C2289     C2290 1.402       .   S
C2289     H2296 1.140       .   S
C2290     N2293 1.397       .   S
C2290     O2297 1.140       .   D
C2291     C2292 1.402       .   S
C2291     H2299 1.140       .   S
C2292     N2293 1.397       .   S
C2292     O2300 1.140       .   D
C2301     C2304 1.388       .   S
C2301     C2306 1.388       .   S
C2302     H2315 1.140       .   S
C2302     C2304 1.388       .   D
C2303     H2318 1.140       .   S
C2303     C2306 1.388       .   S
C2304     C2305 1.410       .   S
C2305     C2314 1.393       .   D
C2305     H2323 1.140       .   S
C2306     C2307 1.410       .   D
C2307     C2314 1.393       .   S
C2307     H2324 1.140       .   S
C2308     C2314 1.485       .   S
C2308     C2309 1.413       .   D
C2308     C2311 1.413       .   S
C2309     C2310 1.402       .   S
C2309     H2316 1.140       .   S
C2310     N2313 1.397       .   S
C2310     O2317 1.140       .   D
C2311     C2312 1.402       .   S
C2311     H2319 1.140       .   S
C2312     N2313 1.397       .   S
C2312     O2320 1.140       .   D
C2237     C2240 1.388       .   S
C2237     C2242 1.388       .   S
C2237     C2257 1.419       .   D
C2238     H2251 1.140       .   S
C2238     C2240 1.388       .   S
C2238     C2259 1.419       .   D
C2239     H2254 1.140       .   S
C2239     C2242 1.388       .   D
C2239     C2258 1.419       .   S
C2240     C2241 1.410       .   D
C2241     C2250 1.393       .   S
C2241     H2277 1.140       .   S
C2242     C2243 1.410       .   S
C2243     C2250 1.393       .   D
C2243     H2278 1.140       .   S
C2244     C2250 1.485       .   S
C2244     C2245 1.413       .   S
C2244     C2247 1.413       .   D
C2245     C2246 1.402       .   S
C2245     H2252 1.140       .   S
C2246     N2249 1.397       .   S
C2246     O2253 1.140       .   D
C2247     C2248 1.402       .   S
C2247     H2255 1.140       .   S
C2248     N2249 1.397       .   S
C2248     O2256 1.140       .   D
C2257     C2260 1.388       .   S
C2257     C2262 1.388       .   S
C2258     H2271 1.140       .   S
C2258     C2260 1.388       .   D
C2259     H2274 1.140       .   S
C2259     C2262 1.388       .   S
C2260     C2261 1.410       .   S
C2261     C2270 1.393       .   D
C2261     H2279 1.140       .   S
C2262     C2263 1.410       .   D
C2263     C2270 1.393       .   S
C2263     H2280 1.140       .   S
C2264     C2270 1.485       .   S
C2264     C2265 1.413       .   D
C2264     C2267 1.413       .   S
C2265     C2266 1.402       .   S
C2265     H2272 1.140       .   S
C2266     N2269 1.397       .   S
C2266     O2273 1.140       .   D
C2267     C2268 1.402       .   S
C2267     H2275 1.140       .   S
C2268     N2269 1.397       .   S
C2268     O2276 1.140       .   D
C2193     C2196 1.388       .   S
C2193     C2198 1.388       .   S
C2193     C2213 1.419       .   D
C2194     H2207 1.140       .   S
C2194     C2196 1.388       .   S
C2194     C2215 1.419       .   D
C2195     H2210 1.140       .   S
C2195     C2198 1.388       .   D
C2195     C2214 1.419       .   S
C2196     C2197 1.410       .   D
C2197     C2206 1.393       .   S
C2197     H2233 1.140       .   S
C2198     C2199 1.410       .   S
C2199     C2206 1.393       .   D
C2199     H2234 1.140       .   S
C2200     C2206 1.485       .   S
C2200     C2201 1.413       .   S
C2200     C2203 1.413       .   D
C2201     C2202 1.402       .   S
C2201     H2208 1.140       .   S
C2202     N2205 1.397       .   S
C2202     O2209 1.140       .   D
C2203     C2204 1.402       .   S
C2203     H2211 1.140       .   S
C2204     N2205 1.397       .   S
C2204     O2212 1.140       .   D
C2213     C2216 1.388       .   S
C2213     C2218 1.388       .   S
C2214     H2227 1.140       .   S
C2214     C2216 1.388       .   D
C2215     H2230 1.140       .   S
C2215     C2218 1.388       .   S
C2216     C2217 1.410       .   S
C2217     C2226 1.393       .   D
C2217     H2235 1.140       .   S
C2218     C2219 1.410       .   D
C2219     C2226 1.393       .   S
C2219     H2236 1.140       .   S
C2220     C2226 1.485       .   S
C2220     C2221 1.413       .   D
C2220     C2223 1.413       .   S
C2221     C2222 1.402       .   S
C2221     H2228 1.140       .   S
C2222     N2225 1.397       .   S
C2222     O2229 1.140       .   D
C2223     C2224 1.402       .   S
C2223     H2231 1.140       .   S
C2224     N2225 1.397       .   S
C2224     O2232 1.140       .   D
C2149     C2152 1.388       .   S
C2149     C2154 1.388       .   S
C2149     C2169 1.419       .   D
C2150     H2163 1.140       .   S
C2150     C2152 1.388       .   S
C2150     C2171 1.419       .   D
C2151     H2166 1.140       .   S
C2151     C2154 1.388       .   D
C2151     C2170 1.419       .   S
C2152     C2153 1.410       .   D
C2153     C2162 1.393       .   S
C2153     H2189 1.140       .   S
C2154     C2155 1.410       .   S
C2155     C2162 1.393       .   D
C2155     H2190 1.140       .   S
C2156     C2162 1.485       .   S
C2156     C2157 1.413       .   S
C2156     C2159 1.413       .   D
C2157     C2158 1.402       .   S
C2157     H2164 1.140       .   S
C2158     N2161 1.397       .   S
C2158     O2165 1.140       .   D
C2159     C2160 1.402       .   S
C2159     H2167 1.140       .   S
C2160     N2161 1.397       .   S
C2160     O2168 1.140       .   D
C2169     C2172 1.388       .   S
C2169     C2174 1.388       .   S
C2170     H2183 1.140       .   S
C2170     C2172 1.388       .   D
C2171     H2186 1.140       .   S
C2171     C2174 1.388       .   S
C2172     C2173 1.410       .   S
C2173     C2182 1.393       .   D
C2173     H2191 1.140       .   S
C2174     C2175 1.410       .   D
C2175     C2182 1.393       .   S
C2175     H2192 1.140       .   S
C2176     C2182 1.485       .   S
C2176     C2177 1.413       .   D
C2176     C2179 1.413       .   S
C2177     C2178 1.402       .   S
C2177     H2184 1.140       .   S
C2178     N2181 1.397       .   S
C2178     O2185 1.140       .   D
C2179     C2180 1.402       .   S
C2179     H2187 1.140       .   S
C2180     N2181 1.397       .   S
C2180     O2188 1.140       .   D
C2105     C2108 1.388       .   S
C2105     C2110 1.388       .   S
C2105     C2125 1.419       .   D
C2106     H2119 1.140       .   S
C2106     C2108 1.388       .   S
C2106     C2127 1.419       .   D
C2107     H2122 1.140       .   S
C2107     C2110 1.388       .   D
C2107     C2126 1.419       .   S
C2108     C2109 1.410       .   D
C2109     C2118 1.393       .   S
C2109     H2145 1.140       .   S
C2110     C2111 1.410       .   S
C2111     C2118 1.393       .   D
C2111     H2146 1.140       .   S
C2112     C2118 1.485       .   S
C2112     C2113 1.413       .   S
C2112     C2115 1.413       .   D
C2113     C2114 1.402       .   S
C2113     H2120 1.140       .   S
C2114     N2117 1.397       .   S
C2114     O2121 1.140       .   D
C2115     C2116 1.402       .   S
C2115     H2123 1.140       .   S
C2116     N2117 1.397       .   S
C2116     O2124 1.140       .   D
C2125     C2128 1.388       .   S
C2125     C2130 1.388       .   S
C2126     H2139 1.140       .   S
C2126     C2128 1.388       .   D
C2127     H2142 1.140       .   S
C2127     C2130 1.388       .   S
C2128     C2129 1.410       .   S
C2129     C2138 1.393       .   D
C2129     H2147 1.140       .   S
C2130     C2131 1.410       .   D
C2131     C2138 1.393       .   S
C2131     H2148 1.140       .   S
C2132     C2138 1.485       .   S
C2132     C2133 1.413       .   D
C2132     C2135 1.413       .   S
C2133     C2134 1.402       .   S
C2133     H2140 1.140       .   S
C2134     N2137 1.397       .   S
C2134     O2141 1.140       .   D
C2135     C2136 1.402       .   S
C2135     H2143 1.140       .   S
C2136     N2137 1.397       .   S
C2136     O2144 1.140       .   D
C2061     C2064 1.388       .   S
C2061     C2066 1.388       .   S
C2061     C2081 1.419       .   D
C2062     H2075 1.140       .   S
C2062     C2064 1.388       .   S
C2062     C2083 1.419       .   D
C2063     H2078 1.140       .   S
C2063     C2066 1.388       .   D
C2063     C2082 1.419       .   S
C2064     C2065 1.410       .   D
C2065     C2074 1.393       .   S
C2065     H2101 1.140       .   S
C2066     C2067 1.410       .   S
C2067     C2074 1.393       .   D
C2067     H2102 1.140       .   S
C2068     C2074 1.485       .   S
C2068     C2069 1.413       .   S
C2068     C2071 1.413       .   D
C2069     C2070 1.402       .   S
C2069     H2076 1.140       .   S
C2070     N2073 1.397       .   S
C2070     O2077 1.140       .   D
C2071     C2072 1.402       .   S
C2071     H2079 1.140       .   S
C2072     N2073 1.397       .   S
C2072     O2080 1.140       .   D
C2081     C2084 1.388       .   S
C2081     C2086 1.388       .   S
C2082     H2095 1.140       .   S
C2082     C2084 1.388       .   D
C2083     H2098 1.140       .   S
C2083     C2086 1.388       .   S
C2084     C2085 1.410       .   S
C2085     C2094 1.393       .   D
C2085     H2103 1.140       .   S
C2086     C2087 1.410       .   D
C2087     C2094 1.393       .   S
C2087     H2104 1.140       .   S
C2088     C2094 1.485       .   S
C2088     C2089 1.413       .   D
C2088     C2091 1.413       .   S
C2089     C2090 1.402       .   S
C2089     H2096 1.140       .   S
C2090     N2093 1.397       .   S
C2090     O2097 1.140       .   D
C2091     C2092 1.402       .   S
C2091     H2099 1.140       .   S
C2092     N2093 1.397       .   S
C2092     O2100 1.140       .   D
C2017     C2020 1.388       .   S
C2017     C2022 1.388       .   S
C2017     C2037 1.419       .   D
C2018     H2031 1.140       .   S
C2018     C2020 1.388       .   S
C2018     C2039 1.419       .   D
C2019     H2034 1.140       .   S
C2019     C2022 1.388       .   D
C2019     C2038 1.419       .   S
C2020     C2021 1.410       .   D
C2021     C2030 1.393       .   S
C2021     H2057 1.140       .   S
C2022     C2023 1.410       .   S
C2023     C2030 1.393       .   D
C2023     H2058 1.140       .   S
C2024     C2030 1.485       .   S
C2024     C2025 1.413       .   S
C2024     C2027 1.413       .   D
C2025     C2026 1.402       .   S
C2025     H2032 1.140       .   S
C2026     N2029 1.397       .   S
C2026     O2033 1.140       .   D
C2027     C2028 1.402       .   S
C2027     H2035 1.140       .   S
C2028     N2029 1.397       .   S
C2028     O2036 1.140       .   D
C2037     C2040 1.388       .   S
C2037     C2042 1.388       .   S
C2038     H2051 1.140       .   S
C2038     C2040 1.388       .   D
C2039     H2054 1.140       .   S
C2039     C2042 1.388       .   S
C2040     C2041 1.410       .   S
C2041     C2050 1.393       .   D
C2041     H2059 1.140       .   S
C2042     C2043 1.410       .   D
C2043     C2050 1.393       .   S
C2043     H2060 1.140       .   S
C2044     C2050 1.485       .   S
C2044     C2045 1.413       .   D
C2044     C2047 1.413       .   S
C2045     C2046 1.402       .   S
C2045     H2052 1.140       .   S
C2046     N2049 1.397       .   S
C2046     O2053 1.140       .   D
C2047     C2048 1.402       .   S
C2047     H2055 1.140       .   S
C2048     N2049 1.397       .   S
C2048     O2056 1.140       .   D
C1973     C1976 1.388       .   S
C1973     C1978 1.388       .   S
C1973     C1993 1.419       .   D
C1974     H1987 1.140       .   S
C1974     C1976 1.388       .   S
C1974     C1995 1.419       .   D
C1975     H1990 1.140       .   S
C1975     C1978 1.388       .   D
C1975     C1994 1.419       .   S
C1976     C1977 1.410       .   D
C1977     C1986 1.393       .   S
C1977     H2013 1.140       .   S
C1978     C1979 1.410       .   S
C1979     C1986 1.393       .   D
C1979     H2014 1.140       .   S
C1980     C1986 1.485       .   S
C1980     C1981 1.413       .   S
C1980     C1983 1.413       .   D
C1981     C1982 1.402       .   S
C1981     H1988 1.140       .   S
C1982     N1985 1.397       .   S
C1982     O1989 1.140       .   D
C1983     C1984 1.402       .   S
C1983     H1991 1.140       .   S
C1984     N1985 1.397       .   S
C1984     O1992 1.140       .   D
C1993     C1996 1.388       .   S
C1993     C1998 1.388       .   S
C1994     H2007 1.140       .   S
C1994     C1996 1.388       .   D
C1995     H2010 1.140       .   S
C1995     C1998 1.388       .   S
C1996     C1997 1.410       .   S
C1997     C2006 1.393       .   D
C1997     H2015 1.140       .   S
C1998     C1999 1.410       .   D
C1999     C2006 1.393       .   S
C1999     H2016 1.140       .   S
C2000     C2006 1.485       .   S
C2000     C2001 1.413       .   D
C2000     C2003 1.413       .   S
C2001     C2002 1.402       .   S
C2001     H2008 1.140       .   S
C2002     N2005 1.397       .   S
C2002     O2009 1.140       .   D
C2003     C2004 1.402       .   S
C2003     H2011 1.140       .   S
C2004     N2005 1.397       .   S
C2004     O2012 1.140       .   D
C1929     C1932 1.388       .   S
C1929     C1934 1.388       .   S
C1929     C1949 1.419       .   D
C1930     H1943 1.140       .   S
C1930     C1932 1.388       .   S
C1930     C1951 1.419       .   D
C1931     H1946 1.140       .   S
C1931     C1934 1.388       .   D
C1931     C1950 1.419       .   S
C1932     C1933 1.410       .   D
C1933     C1942 1.393       .   S
C1933     H1969 1.140       .   S
C1934     C1935 1.410       .   S
C1935     C1942 1.393       .   D
C1935     H1970 1.140       .   S
C1936     C1942 1.485       .   S
C1936     C1937 1.413       .   S
C1936     C1939 1.413       .   D
C1937     C1938 1.402       .   S
C1937     H1944 1.140       .   S
C1938     N1941 1.397       .   S
C1938     O1945 1.140       .   D
C1939     C1940 1.402       .   S
C1939     H1947 1.140       .   S
C1940     N1941 1.397       .   S
C1940     O1948 1.140       .   D
C1949     C1952 1.388       .   S
C1949     C1954 1.388       .   S
C1950     H1963 1.140       .   S
C1950     C1952 1.388       .   D
C1951     H1966 1.140       .   S
C1951     C1954 1.388       .   S
C1952     C1953 1.410       .   S
C1953     C1962 1.393       .   D
C1953     H1971 1.140       .   S
C1954     C1955 1.410       .   D
C1955     C1962 1.393       .   S
C1955     H1972 1.140       .   S
C1956     C1962 1.485       .   S
C1956     C1957 1.413       .   D
C1956     C1959 1.413       .   S
C1957     C1958 1.402       .   S
C1957     H1964 1.140       .   S
C1958     N1961 1.397       .   S
C1958     O1965 1.140       .   D
C1959     C1960 1.402       .   S
C1959     H1967 1.140       .   S
C1960     N1961 1.397       .   S
C1960     O1968 1.140       .   D
C1885     C1888 1.388       .   S
C1885     C1890 1.388       .   S
C1885     C1905 1.419       .   D
C1886     H1899 1.140       .   S
C1886     C1888 1.388       .   S
C1886     C1907 1.419       .   D
C1887     H1902 1.140       .   S
C1887     C1890 1.388       .   D
C1887     C1906 1.419       .   S
C1888     C1889 1.410       .   D
C1889     C1898 1.393       .   S
C1889     H1925 1.140       .   S
C1890     C1891 1.410       .   S
C1891     C1898 1.393       .   D
C1891     H1926 1.140       .   S
C1892     C1898 1.485       .   S
C1892     C1893 1.413       .   S
C1892     C1895 1.413       .   D
C1893     C1894 1.402       .   S
C1893     H1900 1.140       .   S
C1894     N1897 1.397       .   S
C1894     O1901 1.140       .   D
C1895     C1896 1.402       .   S
C1895     H1903 1.140       .   S
C1896     N1897 1.397       .   S
C1896     O1904 1.140       .   D
C1905     C1908 1.388       .   S
C1905     C1910 1.388       .   S
C1906     H1919 1.140       .   S
C1906     C1908 1.388       .   D
C1907     H1922 1.140       .   S
C1907     C1910 1.388       .   S
C1908     C1909 1.410       .   S
C1909     C1918 1.393       .   D
C1909     H1927 1.140       .   S
C1910     C1911 1.410       .   D
C1911     C1918 1.393       .   S
C1911     H1928 1.140       .   S
C1912     C1918 1.485       .   S
C1912     C1913 1.413       .   D
C1912     C1915 1.413       .   S
C1913     C1914 1.402       .   S
C1913     H1920 1.140       .   S
C1914     N1917 1.397       .   S
C1914     O1921 1.140       .   D
C1915     C1916 1.402       .   S
C1915     H1923 1.140       .   S
C1916     N1917 1.397       .   S
C1916     O1924 1.140       .   D
C1841     C1844 1.388       .   S
C1841     C1846 1.388       .   S
C1841     C1861 1.419       .   D
C1842     H1855 1.140       .   S
C1842     C1844 1.388       .   S
C1842     C1863 1.419       .   D
C1843     H1858 1.140       .   S
C1843     C1846 1.388       .   D
C1843     C1862 1.419       .   S
C1844     C1845 1.410       .   D
C1845     C1854 1.393       .   S
C1845     H1881 1.140       .   S
C1846     C1847 1.410       .   S
C1847     C1854 1.393       .   D
C1847     H1882 1.140       .   S
C1848     C1854 1.485       .   S
C1848     C1849 1.413       .   S
C1848     C1851 1.413       .   D
C1849     C1850 1.402       .   S
C1849     H1856 1.140       .   S
C1850     N1853 1.397       .   S
C1850     O1857 1.140       .   D
C1851     C1852 1.402       .   S
C1851     H1859 1.140       .   S
C1852     N1853 1.397       .   S
C1852     O1860 1.140       .   D
C1861     C1864 1.388       .   S
C1861     C1866 1.388       .   S
C1862     H1875 1.140       .   S
C1862     C1864 1.388       .   D
C1863     H1878 1.140       .   S
C1863     C1866 1.388       .   S
C1864     C1865 1.410       .   S
C1865     C1874 1.393       .   D
C1865     H1883 1.140       .   S
C1866     C1867 1.410       .   D
C1867     C1874 1.393       .   S
C1867     H1884 1.140       .   S
C1868     C1874 1.485       .   S
C1868     C1869 1.413       .   D
C1868     C1871 1.413       .   S
C1869     C1870 1.402       .   S
C1869     H1876 1.140       .   S
C1870     N1873 1.397       .   S
C1870     O1877 1.140       .   D
C1871     C1872 1.402       .   S
C1871     H1879 1.140       .   S
C1872     N1873 1.397       .   S
C1872     O1880 1.140       .   D
C1797     C1800 1.388       .   S
C1797     C1802 1.388       .   S
C1797     C1817 1.419       .   D
C1798     H1811 1.140       .   S
C1798     C1800 1.388       .   S
C1798     C1819 1.419       .   D
C1799     H1814 1.140       .   S
C1799     C1802 1.388       .   D
C1799     C1818 1.419       .   S
C1800     C1801 1.410       .   D
C1801     C1810 1.393       .   S
C1801     H1837 1.140       .   S
C1802     C1803 1.410       .   S
C1803     C1810 1.393       .   D
C1803     H1838 1.140       .   S
C1804     C1810 1.485       .   S
C1804     C1805 1.413       .   S
C1804     C1807 1.413       .   D
C1805     C1806 1.402       .   S
C1805     H1812 1.140       .   S
C1806     N1809 1.397       .   S
C1806     O1813 1.140       .   D
C1807     C1808 1.402       .   S
C1807     H1815 1.140       .   S
C1808     N1809 1.397       .   S
C1808     O1816 1.140       .   D
C1817     C1820 1.388       .   S
C1817     C1822 1.388       .   S
C1818     H1831 1.140       .   S
C1818     C1820 1.388       .   D
C1819     H1834 1.140       .   S
C1819     C1822 1.388       .   S
C1820     C1821 1.410       .   S
C1821     C1830 1.393       .   D
C1821     H1839 1.140       .   S
C1822     C1823 1.410       .   D
C1823     C1830 1.393       .   S
C1823     H1840 1.140       .   S
C1824     C1830 1.485       .   S
C1824     C1825 1.413       .   D
C1824     C1827 1.413       .   S
C1825     C1826 1.402       .   S
C1825     H1832 1.140       .   S
C1826     N1829 1.397       .   S
C1826     O1833 1.140       .   D
C1827     C1828 1.402       .   S
C1827     H1835 1.140       .   S
C1828     N1829 1.397       .   S
C1828     O1836 1.140       .   D
C1753     C1756 1.388       .   S
C1753     C1758 1.388       .   S
C1753     C1773 1.419       .   D
C1754     H1767 1.140       .   S
C1754     C1756 1.388       .   S
C1754     C1775 1.419       .   D
C1755     H1770 1.140       .   S
C1755     C1758 1.388       .   D
C1755     C1774 1.419       .   S
C1756     C1757 1.410       .   D
C1757     C1766 1.393       .   S
C1757     H1793 1.140       .   S
C1758     C1759 1.410       .   S
C1759     C1766 1.393       .   D
C1759     H1794 1.140       .   S
C1760     C1766 1.485       .   S
C1760     C1761 1.413       .   S
C1760     C1763 1.413       .   D
C1761     C1762 1.402       .   S
C1761     H1768 1.140       .   S
C1762     N1765 1.397       .   S
C1762     O1769 1.140       .   D
C1763     C1764 1.402       .   S
C1763     H1771 1.140       .   S
C1764     N1765 1.397       .   S
C1764     O1772 1.140       .   D
C1773     C1776 1.388       .   S
C1773     C1778 1.388       .   S
C1774     H1787 1.140       .   S
C1774     C1776 1.388       .   D
C1775     H1790 1.140       .   S
C1775     C1778 1.388       .   S
C1776     C1777 1.410       .   S
C1777     C1786 1.393       .   D
C1777     H1795 1.140       .   S
C1778     C1779 1.410       .   D
C1779     C1786 1.393       .   S
C1779     H1796 1.140       .   S
C1780     C1786 1.485       .   S
C1780     C1781 1.413       .   D
C1780     C1783 1.413       .   S
C1781     C1782 1.402       .   S
C1781     H1788 1.140       .   S
C1782     N1785 1.397       .   S
C1782     O1789 1.140       .   D
C1783     C1784 1.402       .   S
C1783     H1791 1.140       .   S
C1784     N1785 1.397       .   S
C1784     O1792 1.140       .   D
C1709     C1712 1.388       .   S
C1709     C1714 1.388       .   S
C1709     C1729 1.419       .   D
C1710     H1723 1.140       .   S
C1710     C1712 1.388       .   S
C1710     C1731 1.419       .   D
C1711     H1726 1.140       .   S
C1711     C1714 1.388       .   D
C1711     C1730 1.419       .   S
C1712     C1713 1.410       .   D
C1713     C1722 1.393       .   S
C1713     H1749 1.140       .   S
C1714     C1715 1.410       .   S
C1715     C1722 1.393       .   D
C1715     H1750 1.140       .   S
C1716     C1722 1.485       .   S
C1716     C1717 1.413       .   S
C1716     C1719 1.413       .   D
C1717     C1718 1.402       .   S
C1717     H1724 1.140       .   S
C1718     N1721 1.397       .   S
C1718     O1725 1.140       .   D
C1719     C1720 1.402       .   S
C1719     H1727 1.140       .   S
C1720     N1721 1.397       .   S
C1720     O1728 1.140       .   D
C1729     C1732 1.388       .   S
C1729     C1734 1.388       .   S
C1730     H1743 1.140       .   S
C1730     C1732 1.388       .   D
C1731     H1746 1.140       .   S
C1731     C1734 1.388       .   S
C1732     C1733 1.410       .   S
C1733     C1742 1.393       .   D
C1733     H1751 1.140       .   S
C1734     C1735 1.410       .   D
C1735     C1742 1.393       .   S
C1735     H1752 1.140       .   S
C1736     C1742 1.485       .   S
C1736     C1737 1.413       .   D
C1736     C1739 1.413       .   S
C1737     C1738 1.402       .   S
C1737     H1744 1.140       .   S
C1738     N1741 1.397       .   S
C1738     O1745 1.140       .   D
C1739     C1740 1.402       .   S
C1739     H1747 1.140       .   S
C1740     N1741 1.397       .   S
C1740     O1748 1.140       .   D
C1665     C1668 1.388       .   S
C1665     C1670 1.388       .   S
C1665     C1685 1.419       .   D
C1666     H1679 1.140       .   S
C1666     C1668 1.388       .   S
C1666     C1687 1.419       .   D
C1667     H1682 1.140       .   S
C1667     C1670 1.388       .   D
C1667     C1686 1.419       .   S
C1668     C1669 1.410       .   D
C1669     C1678 1.393       .   S
C1669     H1705 1.140       .   S
C1670     C1671 1.410       .   S
C1671     C1678 1.393       .   D
C1671     H1706 1.140       .   S
C1672     C1678 1.485       .   S
C1672     C1673 1.413       .   S
C1672     C1675 1.413       .   D
C1673     C1674 1.402       .   S
C1673     H1680 1.140       .   S
C1674     N1677 1.397       .   S
C1674     O1681 1.140       .   D
C1675     C1676 1.402       .   S
C1675     H1683 1.140       .   S
C1676     N1677 1.397       .   S
C1676     O1684 1.140       .   D
C1685     C1688 1.388       .   S
C1685     C1690 1.388       .   S
C1686     H1699 1.140       .   S
C1686     C1688 1.388       .   D
C1687     H1702 1.140       .   S
C1687     C1690 1.388       .   S
C1688     C1689 1.410       .   S
C1689     C1698 1.393       .   D
C1689     H1707 1.140       .   S
C1690     C1691 1.410       .   D
C1691     C1698 1.393       .   S
C1691     H1708 1.140       .   S
C1692     C1698 1.485       .   S
C1692     C1693 1.413       .   D
C1692     C1695 1.413       .   S
C1693     C1694 1.402       .   S
C1693     H1700 1.140       .   S
C1694     N1697 1.397       .   S
C1694     O1701 1.140       .   D
C1695     C1696 1.402       .   S
C1695     H1703 1.140       .   S
C1696     N1697 1.397       .   S
C1696     O1704 1.140       .   D
C1621     C1624 1.388       .   S
C1621     C1626 1.388       .   S
C1621     C1641 1.419       .   D
C1622     H1635 1.140       .   S
C1622     C1624 1.388       .   S
C1622     C1643 1.419       .   D
C1623     H1638 1.140       .   S
C1623     C1626 1.388       .   D
C1623     C1642 1.419       .   S
C1624     C1625 1.410       .   D
C1625     C1634 1.393       .   S
C1625     H1661 1.140       .   S
C1626     C1627 1.410       .   S
C1627     C1634 1.393       .   D
C1627     H1662 1.140       .   S
C1628     C1634 1.485       .   S
C1628     C1629 1.413       .   S
C1628     C1631 1.413       .   D
C1629     C1630 1.402       .   S
C1629     H1636 1.140       .   S
C1630     N1633 1.397       .   S
C1630     O1637 1.140       .   D
C1631     C1632 1.402       .   S
C1631     H1639 1.140       .   S
C1632     N1633 1.397       .   S
C1632     O1640 1.140       .   D
C1641     C1644 1.388       .   S
C1641     C1646 1.388       .   S
C1642     H1655 1.140       .   S
C1642     C1644 1.388       .   D
C1643     H1658 1.140       .   S
C1643     C1646 1.388       .   S
C1644     C1645 1.410       .   S
C1645     C1654 1.393       .   D
C1645     H1663 1.140       .   S
C1646     C1647 1.410       .   D
C1647     C1654 1.393       .   S
C1647     H1664 1.140       .   S
C1648     C1654 1.485       .   S
C1648     C1649 1.413       .   D
C1648     C1651 1.413       .   S
C1649     C1650 1.402       .   S
C1649     H1656 1.140       .   S
C1650     N1653 1.397       .   S
C1650     O1657 1.140       .   D
C1651     C1652 1.402       .   S
C1651     H1659 1.140       .   S
C1652     N1653 1.397       .   S
C1652     O1660 1.140       .   D
C1577     C1580 1.388       .   S
C1577     C1582 1.388       .   S
C1577     C1597 1.419       .   D
C1578     H1591 1.140       .   S
C1578     C1580 1.388       .   S
C1578     C1599 1.419       .   D
C1579     H1594 1.140       .   S
C1579     C1582 1.388       .   D
C1579     C1598 1.419       .   S
C1580     C1581 1.410       .   D
C1581     C1590 1.393       .   S
C1581     H1617 1.140       .   S
C1582     C1583 1.410       .   S
C1583     C1590 1.393       .   D
C1583     H1618 1.140       .   S
C1584     C1590 1.485       .   S
C1584     C1585 1.413       .   S
C1584     C1587 1.413       .   D
C1585     C1586 1.402       .   S
C1585     H1592 1.140       .   S
C1586     N1589 1.397       .   S
C1586     O1593 1.140       .   D
C1587     C1588 1.402       .   S
C1587     H1595 1.140       .   S
C1588     N1589 1.397       .   S
C1588     O1596 1.140       .   D
C1597     C1600 1.388       .   S
C1597     C1602 1.388       .   S
C1598     H1611 1.140       .   S
C1598     C1600 1.388       .   D
C1599     H1614 1.140       .   S
C1599     C1602 1.388       .   S
C1600     C1601 1.410       .   S
C1601     C1610 1.393       .   D
C1601     H1619 1.140       .   S
C1602     C1603 1.410       .   D
C1603     C1610 1.393       .   S
C1603     H1620 1.140       .   S
C1604     C1610 1.485       .   S
C1604     C1605 1.413       .   D
C1604     C1607 1.413       .   S
C1605     C1606 1.402       .   S
C1605     H1612 1.140       .   S
C1606     N1609 1.397       .   S
C1606     O1613 1.140       .   D
C1607     C1608 1.402       .   S
C1607     H1615 1.140       .   S
C1608     N1609 1.397       .   S
C1608     O1616 1.140       .   D
C1533     C1536 1.388       .   S
C1533     C1538 1.388       .   S
C1533     C1553 1.419       .   D
C1534     H1547 1.140       .   S
C1534     C1536 1.388       .   S
C1534     C1555 1.419       .   D
C1535     H1550 1.140       .   S
C1535     C1538 1.388       .   D
C1535     C1554 1.419       .   S
C1536     C1537 1.410       .   D
C1537     C1546 1.393       .   S
C1537     H1573 1.140       .   S
C1538     C1539 1.410       .   S
C1539     C1546 1.393       .   D
C1539     H1574 1.140       .   S
C1540     C1546 1.485       .   S
C1540     C1541 1.413       .   S
C1540     C1543 1.413       .   D
C1541     C1542 1.402       .   S
C1541     H1548 1.140       .   S
C1542     N1545 1.397       .   S
C1542     O1549 1.140       .   D
C1543     C1544 1.402       .   S
C1543     H1551 1.140       .   S
C1544     N1545 1.397       .   S
C1544     O1552 1.140       .   D
C1553     C1556 1.388       .   S
C1553     C1558 1.388       .   S
C1554     H1567 1.140       .   S
C1554     C1556 1.388       .   D
C1555     H1570 1.140       .   S
C1555     C1558 1.388       .   S
C1556     C1557 1.410       .   S
C1557     C1566 1.393       .   D
C1557     H1575 1.140       .   S
C1558     C1559 1.410       .   D
C1559     C1566 1.393       .   S
C1559     H1576 1.140       .   S
C1560     C1566 1.485       .   S
C1560     C1561 1.413       .   D
C1560     C1563 1.413       .   S
C1561     C1562 1.402       .   S
C1561     H1568 1.140       .   S
C1562     N1565 1.397       .   S
C1562     O1569 1.140       .   D
C1563     C1564 1.402       .   S
C1563     H1571 1.140       .   S
C1564     N1565 1.397       .   S
C1564     O1572 1.140       .   D
C1489     C1492 1.388       .   S
C1489     C1494 1.388       .   S
C1489     C1509 1.419       .   D
C1490     H1503 1.140       .   S
C1490     C1492 1.388       .   S
C1490     C1511 1.419       .   D
C1491     H1506 1.140       .   S
C1491     C1494 1.388       .   D
C1491     C1510 1.419       .   S
C1492     C1493 1.410       .   D
C1493     C1502 1.393       .   S
C1493     H1529 1.140       .   S
C1494     C1495 1.410       .   S
C1495     C1502 1.393       .   D
C1495     H1530 1.140       .   S
C1496     C1502 1.485       .   S
C1496     C1497 1.413       .   S
C1496     C1499 1.413       .   D
C1497     C1498 1.402       .   S
C1497     H1504 1.140       .   S
C1498     N1501 1.397       .   S
C1498     O1505 1.140       .   D
C1499     C1500 1.402       .   S
C1499     H1507 1.140       .   S
C1500     N1501 1.397       .   S
C1500     O1508 1.140       .   D
C1509     C1512 1.388       .   S
C1509     C1514 1.388       .   S
C1510     H1523 1.140       .   S
C1510     C1512 1.388       .   D
C1511     H1526 1.140       .   S
C1511     C1514 1.388       .   S
C1512     C1513 1.410       .   S
C1513     C1522 1.393       .   D
C1513     H1531 1.140       .   S
C1514     C1515 1.410       .   D
C1515     C1522 1.393       .   S
C1515     H1532 1.140       .   S
C1516     C1522 1.485       .   S
C1516     C1517 1.413       .   D
C1516     C1519 1.413       .   S
C1517     C1518 1.402       .   S
C1517     H1524 1.140       .   S
C1518     N1521 1.397       .   S
C1518     O1525 1.140       .   D
C1519     C1520 1.402       .   S
C1519     H1527 1.140       .   S
C1520     N1521 1.397       .   S
C1520     O1528 1.140       .   D
