data_pcl_v1-on15-3D_1-oe107
_audit_creation_date              2023-10-26
_audit_creation_method            'newmof'
_symmetry_space_group_name_H-M    'P1'
_symmetry_Int_Tables_number       1
_symmetry_cell_setting            triclinic
loop_
_symmetry_equiv_pos_as_xyz
  x,y,z
_cell_length_a                    88.13989026649212
_cell_length_b                    92.69971426222229
_cell_length_c                    83.5576832408763
_cell_angle_alpha                 89.99990326832742
_cell_angle_beta                  89.99826608633185
_cell_angle_gamma                 89.99930468375398
loop_
_atom_site_label
_atom_site_type_symbol
_atom_site_fract_x
_atom_site_fract_y
_atom_site_fract_z
_atom_site_charge
C1         C    0.3401969458    0.8328845772    0.4261559812         -0.0042
C2         C    0.3352303819    0.8201709518    0.4185603068         -0.0042
C3         C    0.3198384310    0.8183194005    0.4149231348         -0.0042
C4         C    0.3093379656    0.8290401683    0.4190096951         -0.0042
C5         C    0.2937249148    0.8275201880    0.4159313245         -0.0042
C6         C    0.2834683196    0.8383540632    0.4205777877         -0.0042
C7         C    0.2886862544    0.8507596556    0.4285111207         -0.0042
C8         C    0.2788592674    0.8618015743    0.4335696229         -0.0042
C9         C    0.2846609227    0.8739044845    0.4416489321         -0.0042
C10        C    0.3002778045    0.8747528073    0.4447694528         -0.0042
C11        C    0.3042569385    0.8522348856    0.4316330079         -0.0042
C12        C    0.3146599807    0.8415396125    0.4266540447         -0.0042
C13        C    0.4048952191    0.8382439232    0.4322659731         -0.0042
C14        C    0.3070318834    0.8870993809    0.4529975296         -0.0042
C15        C    0.3109330485    0.8859314754    0.4691792575         -0.0042
C16        C    0.3198886031    0.8965152441    0.4763797343         -0.0042
C17        C    0.3252711952    0.9082406676    0.4673896498         -0.0042
C18        C    0.3207241880    0.9097181208    0.4513399387         -0.0042
C19        C    0.3116237444    0.8991962193    0.4442026411         -0.0042
C20        C    0.3371365889    0.9175339034    0.4743027408         -0.0042
C21        C    0.3376329080    0.8511912749    0.4745328173         -0.0042
C22        C    0.3452725633    0.8540275756    0.4889560189         -0.0042
C23        C    0.3540905385    0.8665513643    0.4904473079         -0.0042
C24        C    0.3558567729    0.8758211534    0.4773093854         -0.0042
C25        C    0.3656215454    0.8877914435    0.4777419261         -0.0042
C26        C    0.3679455242    0.8961626545    0.4639534167         -0.0042
C27        C    0.3603791673    0.8927836040    0.4496270889         -0.0042
C28        C    0.3628550759    0.9005323536    0.4354646064         -0.0042
C29        C    0.3556378055    0.8963090323    0.4212697348         -0.0042
C30        C    0.3456514101    0.8844793816    0.4213390388         -0.0042
C31        C    0.3502528787    0.8810836054    0.4492584747         -0.0042
C32        C    0.3479856899    0.8726213229    0.4631337551         -0.0042
C33        C    0.3133195435    0.7947562759    0.4609813168         -0.0042
C34        C    0.3220343865    0.8573659437    0.3647367517         -0.0042
Cu35      Cu    0.3307686880    0.8611798124    0.4412634015             1.0
N36        N    0.3297919558    0.8432445717    0.4297262623         -0.0042
N37        N    0.3094311188    0.8639258031    0.4397292919         -0.0042
N38        N    0.3387077167    0.8608996236    0.4624376014         -0.0042
N39        N    0.3430803291    0.8774424155    0.4353680124         -0.0042
N40        N    0.4120196626    0.8494046581    0.4266127362         -0.0042
N41        N    0.3451914150    0.9258791553    0.4651341592         -0.0042
N42        N    0.2988897924    0.7922273192    0.4594596700         -0.0042
N43        N    0.3310991299    0.8508888674    0.3547934347         -0.0042
C44        C    0.3394056813    0.8787598679    0.4063062203         -0.0042
C45        C    0.3492095593    0.8751848819    0.3936806259         -0.0042
C46        C    0.3436155562    0.8683856236    0.3799996522         -0.0042
C47        C    0.3280758333    0.8652105208    0.3786739026         -0.0042
C48        C    0.3182218622    0.8692280111    0.3910965860         -0.0042
C49        C    0.3238701688    0.8759360384    0.4048306027         -0.0042
C50        C    0.3881551009    0.8377554361    0.4325023449         -0.0042
C51        C    0.3808353638    0.8251722876    0.4377401690         -0.0042
C52        C    0.3651047413    0.8237957672    0.4363411800         -0.0042
C53        C    0.3564338971    0.8350137023    0.4297252678         -0.0042
C54        C    0.3636496430    0.8478332238    0.4251977359         -0.0042
C55        C    0.3793778109    0.8492470638    0.4265773307         -0.0042
H56        H    0.3432253239    0.8118073293    0.4152874997         -0.0042
H57        H    0.3161588424    0.8085180518    0.4090231843         -0.0042
H58        H    0.2894474167    0.8179438828    0.4100262550         -0.0042
H59        H    0.2714927723    0.8369713735    0.4181131528         -0.0042
H60        H    0.2667856190    0.8610819159    0.4312991354         -0.0042
H61        H    0.2770944353    0.8824375445    0.4454697672         -0.0042
H62        H    0.4111403141    0.8289327785    0.4364924627         -0.0042
H63        H    0.3076676903    0.8764863814    0.4759941329         -0.0042
H64        H    0.3234041691    0.8950608612    0.4886990143         -0.0042
H65        H    0.3247988116    0.9185997363    0.4440975932         -0.0042
H66        H    0.3088412844    0.9001030174    0.4316156515         -0.0042
H67        H    0.3406199599    0.9153625069    0.4864800805         -0.0042
H68        H    0.3447338139    0.8464292881    0.4987896225         -0.0042
H69        H    0.3600437094    0.8686140867    0.5015515278         -0.0042
H70        H    0.3717262861    0.8904585437    0.4885981689         -0.0042
H71        H    0.3758278873    0.9051104686    0.4644348011         -0.0042
H72        H    0.3706447344    0.9095648610    0.4352671296         -0.0042
H73        H    0.3579793611    0.9020933225    0.4102843989         -0.0042
H74        H    0.3214435947    0.7860286422    0.4601370638         -0.0042
H75        H    0.3098515950    0.8561414538    0.3636422176         -0.0042
H76        H    0.3612858822    0.8771854621    0.3946675031         -0.0042
H77        H    0.3514656747    0.8654419685    0.3705797120         -0.0042
H78        H    0.3061955392    0.8669206064    0.3903187907         -0.0042
H79        H    0.3161275915    0.8789385287    0.4142694340         -0.0042
H80        H    0.3873452191    0.8162089723    0.4424306303         -0.0042
H81        H    0.3597422613    0.8138289218    0.4400546720         -0.0042
H82        H    0.3572300615    0.8564110003    0.4197377990         -0.0042
H83        H    0.3846822658    0.8591005553    0.4224344555         -0.0042
C84        C    0.3308465659    0.8369934412    0.4715792740         -0.0042
C85        C    0.3156960168    0.8353992937    0.4669582430         -0.0042
C86        C    0.3098990910    0.8216830856    0.4634334963         -0.0042
C87        C    0.3192122504    0.8093411054    0.4642384695         -0.0042
C88        C    0.3345229685    0.8106934390    0.4685467546         -0.0042
C89        C    0.3405741531    0.8240825576    0.4723963056         -0.0042
H90        H    0.3083438899    0.8447301718    0.4661729308         -0.0042
H91        H    0.2981032157    0.8207329921    0.4599656294         -0.0042
H92        H    0.3418067029    0.8012908799    0.4690999758         -0.0042
H93        H    0.3524251476    0.8249836820    0.4756602944         -0.0042
C94        C    0.1556895741    0.6381941423    0.5664487915         -0.0042
C95        C    0.1611997626    0.6374946410    0.5506467234         -0.0042
C96        C    0.1764843702    0.6342509380    0.5477882044         -0.0042
C97        C    0.1863506144    0.6318675177    0.5606539880         -0.0042
C98        C    0.2018590616    0.6289040885    0.5583866643         -0.0042
C99        C    0.2115023750    0.6269361413    0.5716097622         -0.0042
C100       C    0.2057819338    0.6280645347    0.5872520883         -0.0042
C101       C    0.2150027250    0.6263648467    0.6008509812         -0.0042
C102       C    0.2087308700    0.6277915736    0.6162377156         -0.0042
C103       C    0.1932708687    0.6310932205    0.6178618980         -0.0042
C104       C    0.1903212335    0.6310798382    0.5894968964         -0.0042
C105       C    0.1805048354    0.6327300239    0.5762525994         -0.0042
C106       C    0.0911575574    0.6455798433    0.5718823060         -0.0042
C107       C    0.1860397269    0.6326011310    0.6335179456         -0.0042
C108       C    0.1830623706    0.6463786768    0.6395985633         -0.0042
C109       C    0.1737178684    0.6480299608    0.6529572609         -0.0042
C110       C    0.1670253297    0.6359334884    0.6601920231         -0.0042
C111       C    0.1706295710    0.6220722778    0.6545032830         -0.0042
C112       C    0.1801169781    0.6204325192    0.6412403595         -0.0042
C113       C    0.1548642297    0.6381606164    0.6720282096         -0.0042
C114       C    0.1593324012    0.6684287012    0.6067008165         -0.0042
C115       C    0.1522432949    0.6792696882    0.6157735928         -0.0042
C116       C    0.1426013157    0.6754622695    0.6284429002         -0.0042
C117       C    0.1394835721    0.6608828785    0.6315094860         -0.0042
C118       C    0.1288861183    0.6565507541    0.6431107896         -0.0042
C119       C    0.1252468782    0.6419000318    0.6449714545         -0.0042
C120       C    0.1323083956    0.6313879671    0.6354047969         -0.0042
C121       C    0.1285452999    0.6167313867    0.6364747049         -0.0042
C122       C    0.1353287880    0.6067334640    0.6261214100         -0.0042
C123       C    0.1461619603    0.6113867064    0.6148970527         -0.0042
C124       C    0.1432490079    0.6356213392    0.6241139546         -0.0042
C125       C    0.1468428827    0.6503870792    0.6222008117         -0.0042
C126       C    0.1870732758    0.6812913408    0.5458599675         -0.0042
C127       C    0.1688363228    0.5765650876    0.5632735544         -0.0042
Cu128     Cu    0.1637356523    0.6367539848    0.6016328608             1.0
N129       N    0.1654614430    0.6355681503    0.5787191392         -0.0042
N130       N    0.1847059760    0.6326589998    0.6045107890         -0.0042
N131       N    0.1569235348    0.6544326612    0.6107043249         -0.0042
N132       N    0.1499599591    0.6256068234    0.6144718481         -0.0042
N133       N    0.0829415454    0.6365424418    0.5800133727         -0.0042
N134       N    0.1457532241    0.6276554489    0.6757395667         -0.0042
N135       N    0.2015574057    0.6801208967    0.5432605787         -0.0042
N136       N    0.1597862038    0.5722296051    0.5519753408         -0.0042
C137       C    0.1520468818    0.6014696294    0.6026461272         -0.0042
C138       C    0.1419078610    0.5937291598    0.5929539263         -0.0042
C139       C    0.1472928184    0.5854326898    0.5802292798         -0.0042
C140       C    0.1629406865    0.5846272257    0.5771276068         -0.0042
C141       C    0.1730862824    0.5920010672    0.5871654666         -0.0042
C142       C    0.1676567366    0.6003854422    0.5998221732         -0.0042
C143       C    0.1078798552    0.6447166124    0.5721921214         -0.0042
C144       C    0.1163754541    0.6540508628    0.5624768126         -0.0042
C145       C    0.1320755292    0.6523576866    0.5611228384         -0.0042
C146       C    0.1395391519    0.6413220896    0.5695154825         -0.0042
C147       C    0.1311655399    0.6324413904    0.5797925398         -0.0042
C148       C    0.1154641405    0.6341019549    0.5811745516         -0.0042
H149       H    0.1536945173    0.6392712193    0.5405790290         -0.0042
H150       H    0.1805814047    0.6336876535    0.5355795906         -0.0042
H151       H    0.2065345850    0.6281892946    0.5464220117         -0.0042
H152       H    0.2234086200    0.6246785215    0.5696096278         -0.0042
H153       H    0.2269670565    0.6239548749    0.5995972666         -0.0042
H154       H    0.2158245245    0.6264094960    0.6267053039         -0.0042
H155       H    0.0858465245    0.6536548214    0.5643773210         -0.0042
H156       H    0.1873654961    0.6558624606    0.6335321228         -0.0042
H157       H    0.1709499471    0.6588164242    0.6570068890         -0.0042
H158       H    0.1655407398    0.6125631167    0.6597858479         -0.0042
H159       H    0.1821819733    0.6097355574    0.6364986107         -0.0042
H160       H    0.1521746801    0.6491557530    0.6753073593         -0.0042
H161       H    0.1538459846    0.6905406942    0.6127956164         -0.0042
H162       H    0.1370813105    0.6838687908    0.6353057735         -0.0042
H163       H    0.1231574567    0.6644966085    0.6504501062         -0.0042
H164       H    0.1167524145    0.6388326413    0.6536918377         -0.0042
H165       H    0.1201024017    0.6130752278    0.6449722912         -0.0042
H166       H    0.1320073497    0.5954993288    0.6267111386         -0.0042
H167       H    0.1795898442    0.6851864060    0.5365374007         -0.0042
H168       H    0.1810067173    0.5753166754    0.5620636918         -0.0042
H169       H    0.1297801341    0.5945318167    0.5948841670         -0.0042
H170       H    0.1392153936    0.5798234378    0.5727035918         -0.0042
H171       H    0.1851977151    0.5915085219    0.5850261665         -0.0042
H172       H    0.1756236140    0.6059913507    0.6074101094         -0.0042
H173       H    0.1107982982    0.6623598162    0.5555159001         -0.0042
H174       H    0.1383490178    0.6594358757    0.5532109495         -0.0042
H175       H    0.1366425000    0.6236980282    0.5860181565         -0.0042
H176       H    0.1092351155    0.6267270116    0.5887809134         -0.0042
C177       C    0.1670015079    0.6719784766    0.5916300690         -0.0042
C178       C    0.1819765305    0.6678490869    0.5885660845         -0.0042
C179       C    0.1885952081    0.6707988268    0.5736688992         -0.0042
C180       C    0.1802807948    0.6777413138    0.5614874512         -0.0042
C181       C    0.1651484112    0.6817420853    0.5641636187         -0.0042
C182       C    0.1583173740    0.6792197993    0.5788762834         -0.0042
H183       H    0.1885633771    0.6624352494    0.5977075724         -0.0042
H184       H    0.2002392964    0.6675559740    0.5716297059         -0.0042
H185       H    0.1586232571    0.6869974184    0.5548482338         -0.0042
H186       H    0.1466116924    0.6823258405    0.5807718173         -0.0042
C187       C    0.1556968310    0.3603969317    0.4477486541         -0.0042
C188       C    0.1612056042    0.3610948057    0.4635510011         -0.0042
C189       C    0.1764895296    0.3643396496    0.4664105157         -0.0042
C190       C    0.1863565225    0.3667258366    0.4535454242         -0.0042
C191       C    0.2018643753    0.3696905108    0.4558137024         -0.0042
C192       C    0.2115085239    0.3716612516    0.4425912195         -0.0042
C193       C    0.2057895432    0.3705344423    0.4269485355         -0.0042
C194       C    0.2150112377    0.3722369334    0.4133501998         -0.0042
C195       C    0.2087408628    0.3708117000    0.3979630407         -0.0042
C196       C    0.1932814483    0.3675087241    0.3963378478         -0.0042
C197       C    0.1903294426    0.3675178956    0.4247027654         -0.0042
C198       C    0.1805121641    0.3658648959    0.4379464964         -0.0042
C199       C    0.0911662778    0.3530054979    0.4423120076         -0.0042
C200       C    0.1860518201    0.3660022479    0.3806813339         -0.0042
C201       C    0.1830768545    0.3522252424    0.3745982895         -0.0042
C202       C    0.1737336935    0.3505748633    0.3612390397         -0.0042
C203       C    0.1670401061    0.3626716617    0.3540061375         -0.0042
C204       C    0.1706419780    0.3765324490    0.3596973367         -0.0042
C205       C    0.1801280534    0.3781713302    0.3729608146         -0.0042
C206       C    0.1548802989    0.3604449454    0.3421692190         -0.0042
C207       C    0.1593471512    0.3301682944    0.4074916002         -0.0042
C208       C    0.1522602842    0.3193278476    0.3984167764         -0.0042
C209       C    0.1426188428    0.3231360460    0.3857478353         -0.0042
C210       C    0.1394993629    0.3377155467    0.3826836351         -0.0042
C211       C    0.1289022860    0.3420482076    0.3710827592         -0.0042
C212       C    0.1252611992    0.3566988208    0.3692244769         -0.0042
C213       C    0.1323204810    0.3672102744    0.3787931253         -0.0042
C214       C    0.1285554718    0.3818666242    0.3777255973         -0.0042
C215       C    0.1353367289    0.3918637993    0.3880807876         -0.0042
C216       C    0.1461695997    0.3872100962    0.3993046696         -0.0042
C217       C    0.1432607289    0.3629764433    0.3900835667         -0.0042
C218       C    0.1468564617    0.3482108005    0.3919943062         -0.0042
C219       C    0.1870847027    0.3173000453    0.4683310708         -0.0042
C220       C    0.1688348923    0.4220268677    0.4509347415         -0.0042
Cu221     Cu    0.1637456505    0.3618427532    0.4125650639             1.0
N222       N    0.1654693656    0.3630255988    0.4354790369         -0.0042
N223       N    0.1847156548    0.3659402419    0.4096884415         -0.0042
N224       N    0.1569367065    0.3441646447    0.4034903990         -0.0042
N225       N    0.1499695062    0.3729903024    0.3997275694         -0.0042
N226       N    0.0829497099    0.3620431960    0.4341822370         -0.0042
N227       N    0.1457681677    0.3709497097    0.3384593812         -0.0042
N228       N    0.2015684553    0.3184715857    0.4709310798         -0.0042
N229       N    0.1597832374    0.4263598818    0.4622334279         -0.0042
C230       C    0.1520521429    0.3971260735    0.4115574506         -0.0042
C231       C    0.1419112549    0.4048641868    0.4212506710         -0.0042
C232       C    0.1472940158    0.4131594415    0.4339768833         -0.0042
C233       C    0.1629415147    0.4139660495    0.4370791483         -0.0042
C234       C    0.1730889565    0.4065946126    0.4270403314         -0.0042
C235       C    0.1676616136    0.3982114391    0.4143820428         -0.0042
C236       C    0.1078884834    0.3538704514    0.4420028253         -0.0042
C237       C    0.1163845465    0.3445357139    0.4517167958         -0.0042
C238       C    0.1320842770    0.3462302804    0.4530715144         -0.0042
C239       C    0.1395470925    0.3572677852    0.4446809619         -0.0042
C240       C    0.1311731252    0.3661490613    0.4344051695         -0.0042
C241       C    0.1154720682    0.3644871103    0.4330224189         -0.0042
H242       H    0.1536997610    0.3593160841    0.4736181753         -0.0042
H243       H    0.1805854676    0.3649016608    0.4786193443         -0.0042
H244       H    0.2065388018    0.3704041231    0.4677786123         -0.0042
H245       H    0.2234142933    0.3739197915    0.4445920838         -0.0042
H246       H    0.2269751351    0.3746479341    0.4146046717         -0.0042
H247       H    0.2158352024    0.3721959347    0.3874958937         -0.0042
H248       H    0.0858557218    0.3449289507    0.4498154664         -0.0042
H249       H    0.1873807693    0.3427410539    0.3806632443         -0.0042
H250       H    0.1709675845    0.3397886809    0.3571874990         -0.0042
H251       H    0.1655522885    0.3860418276    0.3544162389         -0.0042
H252       H    0.1821911907    0.3888678448    0.3777044403         -0.0042
H253       H    0.1521925258    0.3494499914    0.3388881236         -0.0042
H254       H    0.1538642655    0.3080565918    0.4013928850         -0.0042
H255       H    0.1371005595    0.3147299175    0.3788833737         -0.0042
H256       H    0.1231753232    0.3341027907    0.3637419264         -0.0042
H257       H    0.1167670446    0.3597665613    0.3605043677         -0.0042
H258       H    0.1201127836    0.3855231076    0.3692283865         -0.0042
H259       H    0.1320138047    0.4030976820    0.3874928705         -0.0042
H260       H    0.1796010248    0.3134029419    0.4776527582         -0.0042
H261       H    0.1810050151    0.4232763355    0.4521451702         -0.0042
H262       H    0.1297837990    0.4040605780    0.4193199412         -0.0042
H263       H    0.1392151961    0.4187668434    0.4415032889         -0.0042
H264       H    0.1852001432    0.4070880794    0.4291800674         -0.0042
H265       H    0.1756298906    0.3926073782    0.4067933864         -0.0042
H266       H    0.1108079449    0.3362252397    0.4586761346         -0.0042
H267       H    0.1383580721    0.3391516297    0.4609823834         -0.0042
H268       H    0.1366494103    0.3748938328    0.4281811974         -0.0042
H269       H    0.1092426706    0.3718624774    0.4254171286         -0.0042
C270       C    0.1670154845    0.3266172096    0.4225619677         -0.0042
C271       C    0.1819896868    0.3307476807    0.4256270893         -0.0042
C272       C    0.1886075233    0.3277965499    0.4405239659         -0.0042
C273       C    0.1802930416    0.3208515467    0.4527039927         -0.0042
C274       C    0.1651614283    0.3168496244    0.4500267054         -0.0042
C275       C    0.1583312752    0.3193732545    0.4353142706         -0.0042
H276       H    0.1885765569    0.3361634415    0.4164867126         -0.0042
H277       H    0.2002509981    0.3310402910    0.4425640488         -0.0042
H278       H    0.1586362145    0.3115923503    0.4593410076         -0.0042
H279       H    0.1466261764    0.3162662991    0.4334178686         -0.0042
C280       C    0.3401942488    0.1657386545    0.5879710483         -0.0042
C281       C    0.3352292035    0.1784529361    0.5955670287         -0.0042
C282       C    0.3198376390    0.1803060488    0.5992062462         -0.0042
C283       C    0.3093360444    0.1695861904    0.5951214317         -0.0042
C284       C    0.2937233169    0.1711077400    0.5982018878         -0.0042
C285       C    0.2834655468    0.1602747375    0.5935571404         -0.0042
C286       C    0.2886819657    0.1478684568    0.5856234582         -0.0042
C287       C    0.2788537602    0.1368273598    0.5805666192         -0.0042
C288       C    0.2846539144    0.1247237019    0.5724868723         -0.0042
C289       C    0.3002705243    0.1238738084    0.5693642460         -0.0042
C290       C    0.3042523273    0.1463916605    0.5824994900         -0.0042
C291       C    0.3146565549    0.1570860548    0.5874767214         -0.0042
C292       C    0.4048916917    0.1603729631    0.5818523871         -0.0042
C293       C    0.3070230728    0.1115263923    0.5611356086         -0.0042
C294       C    0.3109232764    0.1126935399    0.5449533146         -0.0042
C295       C    0.3198775095    0.1021087420    0.5377519253         -0.0042
C296       C    0.3252597444    0.0903830161    0.5467416182         -0.0042
C297       C    0.3207136651    0.0889063796    0.5627919927         -0.0042
C298       C    0.3116145339    0.0994293226    0.5699302242         -0.0042
C299       C    0.3371239391    0.0810884791    0.5398271802         -0.0042
C300       C    0.3376255823    0.1474310543    0.5395950972         -0.0042
C301       C    0.3452640685    0.1445936792    0.5251709363         -0.0042
C302       C    0.3540809385    0.1320690100    0.5236788104         -0.0042
C303       C    0.3558472838    0.1227993635    0.5368167628         -0.0042
C304       C    0.3656110647    0.1108281274    0.5363832398         -0.0042
C305       C    0.3679352691    0.1024570210    0.5501716767         -0.0042
C306       C    0.3603701187    0.1058371367    0.5644989379         -0.0042
C307       C    0.3628463274    0.0980884860    0.5786613090         -0.0042
C308       C    0.3556303229    0.1023128359    0.5928570417         -0.0042
C309       C    0.3456448750    0.1141434419    0.5927887543         -0.0042
C310       C    0.3502447958    0.1175381144    0.5648685916         -0.0042
C311       C    0.3479773830    0.1260002848    0.5509933732         -0.0042
C312       C    0.3133176437    0.2038687048    0.5531482652         -0.0042
C313       C    0.3220337257    0.1412604866    0.6493934706         -0.0042
Cu314     Cu    0.3307627285    0.1374439644    0.5728657411             1.0
N315       N    0.3297881923    0.1553795724    0.5844024894         -0.0042
N316       N    0.3094250386    0.1347000549    0.5744028418         -0.0042
N317       N    0.3387003987    0.1377228898    0.5516904501         -0.0042
N318       N    0.3430734453    0.1211803214    0.5787599259         -0.0042
N319       N    0.4120156058    0.1492116797    0.5875049782         -0.0042
N320       N    0.3451786916    0.0727426729    0.5489949068         -0.0042
N321       N    0.2988881955    0.2063990805    0.5546718066         -0.0042
N322       N    0.3310996388    0.1477369301    0.6593353617         -0.0042
C323       C    0.3394005872    0.1198639110    0.6078222577         -0.0042
C324       C    0.3492055763    0.1234382570    0.6204464101         -0.0042
C325       C    0.3436130128    0.1302383762    0.6341279482         -0.0042
C326       C    0.3280736320    0.1334149997    0.6354557248         -0.0042
C327       C    0.3182185274    0.1293981589    0.6230345032         -0.0042
C328       C    0.3238653982    0.1226892643    0.6092999121         -0.0042
C329       C    0.3881515976    0.1608630489    0.5816182846         -0.0042
C330       C    0.3808325316    0.1734467745    0.5763810913         -0.0042
C331       C    0.3651021112    0.1748248356    0.5777821861         -0.0042
C332       C    0.3564307959    0.1636078886    0.5843996089         -0.0042
C333       C    0.3636458053    0.1507877831    0.5889265310         -0.0042
C334       C    0.3793737693    0.1493724031    0.5875448320         -0.0042
H335       H    0.3432250321    0.1868158700    0.5988385007         -0.0042
H336       H    0.3161592241    0.1901078901    0.6051064123         -0.0042
H337       H    0.2894469746    0.1806845953    0.6041072610         -0.0042
H338       H    0.2714902716    0.1616586334    0.5960233686         -0.0042
H339       H    0.2667803179    0.1375482292    0.5828387328         -0.0042
H340       H    0.2770864911    0.1161912764    0.5686673188         -0.0042
H341       H    0.4111372603    0.1696834090    0.5776247734         -0.0042
H342       H    0.3076582338    0.1221387850    0.5381386086         -0.0042
H343       H    0.3233923890    0.1035624955    0.5254321233         -0.0042
H344       H    0.3247880463    0.0800245456    0.5700340418         -0.0042
H345       H    0.3088328220    0.0985230899    0.5825176199         -0.0042
H346       H    0.3406066905    0.0832592527    0.5276493018         -0.0042
H347       H    0.3447252892    0.1521917849    0.5153371843         -0.0042
H348       H    0.3600332190    0.1300054535    0.5125738387         -0.0042
H349       H    0.3717148825    0.1081601845    0.5255262422         -0.0042
H350       H    0.3758168806    0.0935084401    0.5496894785         -0.0042
H351       H    0.3706352718    0.0890552367    0.5788579872         -0.0042
H352       H    0.3579721295    0.0965285820    0.6038422272         -0.0042
H353       H    0.3214424523    0.2125955799    0.5539911549         -0.0042
H354       H    0.3098511042    0.1424861700    0.6504896309         -0.0042
H355       H    0.3612816737    0.1214364961    0.6194579439         -0.0042
H356       H    0.3514639826    0.1331815026    0.6435467314         -0.0042
H357       H    0.3061924409    0.1317067346    0.6238138716         -0.0042
H358       H    0.3161219637    0.1196872920    0.5998622248         -0.0042
H359       H    0.3873428023    0.1824093545    0.5716894801         -0.0042
H360       H    0.3597401912    0.1847921068    0.5740691344         -0.0042
H361       H    0.3572258897    0.1422107515    0.5943875944         -0.0042
H362       H    0.3846777014    0.1395185016    0.5916872715         -0.0042
C363       C    0.3308405755    0.1616296084    0.5425491514         -0.0042
C364       C    0.3156904562    0.1632253176    0.5471722025         -0.0042
C365       C    0.3098948643    0.1769421648    0.5506973392         -0.0042
C366       C    0.3192089644    0.1892832334    0.5498907349         -0.0042
C367       C    0.3345192925    0.1879293302    0.5455804007         -0.0042
C368       C    0.3405691484    0.1745395403    0.5417304155         -0.0042
H369       H    0.3083376298    0.1538951627    0.5479587904         -0.0042
H370       H    0.2980992918    0.1778934711    0.5541667875         -0.0042
H371       H    0.3418037474    0.1973311781    0.5450259110         -0.0042
H372       H    0.3524198574    0.1736372027    0.5384648362         -0.0042
C373       C    0.1002129014    0.3329063825    0.0880185287         -0.0042
C374       C    0.1051800824    0.3201926269    0.0956137698         -0.0042
C375       C    0.1205720817    0.3183413990    0.0992511456         -0.0042
C376       C    0.1310719888    0.3290626271    0.0951652180         -0.0042
C377       C    0.1466850778    0.3275429972    0.0982438101         -0.0042
C378       C    0.1569411173    0.3383773459    0.0935979798         -0.0042
C379       C    0.1517225889    0.3507830733    0.0856650628         -0.0042
C380       C    0.1615490148    0.3618254679    0.0806071942         -0.0042
C381       C    0.1557467859    0.3739285011    0.0725282779         -0.0042
C382       C    0.1401299056    0.3747764750    0.0694075080         -0.0042
C383       C    0.1361518699    0.3522579558    0.0825429530         -0.0042
C384       C    0.1257493699    0.3415621927    0.0875212864         -0.0042
C385       C    0.0355144156    0.3382640343    0.0819075803         -0.0042
C386       C    0.1333752415    0.3871231488    0.0611798168         -0.0042
C387       C    0.1294744091    0.3859557185    0.0449979699         -0.0042
C388       C    0.1205183551    0.3965394847    0.0377977660         -0.0042
C389       C    0.1151349323    0.4082644205    0.0467882356         -0.0042
C390       C    0.1196815909    0.4097414224    0.0628380903         -0.0042
C391       C    0.1287825313    0.3992195300    0.0699751201         -0.0042
C392       C    0.1032691098    0.4175575570    0.0398753115         -0.0042
C393       C    0.1027766628    0.3512149223    0.0396424933         -0.0042
C394       C    0.0951370780    0.3540515231    0.0252192695         -0.0042
C395       C    0.0863183969    0.3665751049    0.0237283359         -0.0042
C396       C    0.0845514072    0.3758443621    0.0368666080         -0.0042
C397       C    0.0747859438    0.3878143785    0.0364343827         -0.0042
C398       C    0.0724612514    0.3961850173    0.0502231946         -0.0042
C399       C    0.0800275710    0.3928056680    0.0645495209         -0.0042
C400       C    0.0775509791    0.4005538271    0.0787122775         -0.0042
C401       C    0.0847682636    0.3963302015    0.0929071065         -0.0042
C402       C    0.0947553499    0.3845008493    0.0928374970         -0.0042
C403       C    0.0901545358    0.3811059560    0.0649178375         -0.0042
C404       C    0.0924224450    0.3726442473    0.0510422498         -0.0042
C405       C    0.1270930962    0.2947801491    0.0531921117         -0.0042
C406       C    0.1183730288    0.3573860448    0.1494390970         -0.0042
Cu407     Cu    0.1096397564    0.3612024486    0.0729124454             1.0
N408       N    0.1106173457    0.3432668156    0.0844488636         -0.0042
N409       N    0.1309771403    0.3639490156    0.0744470564         -0.0042
N410       N    0.1017010902    0.3609227975    0.0517380896         -0.0042
N411       N    0.0973270706    0.3774644715    0.0788082803         -0.0042
N412       N    0.0283892288    0.3494243516    0.0875611472         -0.0042
N413       N    0.0952136472    0.4259022355    0.0490440902         -0.0042
N414       N    0.1415229699    0.2922515645    0.0547139169         -0.0042
N415       N    0.1093085004    0.3509083369    0.1593819823         -0.0042
C416       C    0.1010011663    0.3787809718    0.1078701936         -0.0042
C417       C    0.0911972903    0.3752052344    0.1204954623         -0.0042
C418       C    0.0967914661    0.3684056424    0.1341762577         -0.0042
C419       C    0.1123313525    0.3652309517    0.1355021593         -0.0042
C420       C    0.1221852924    0.3692491875    0.1230798207         -0.0042
C421       C    0.1165368194    0.3759575489    0.1093459775         -0.0042
C422       C    0.0522545661    0.3377760518    0.0816714929         -0.0042
C423       C    0.0595751225    0.3251933116    0.0764332837         -0.0042
C424       C    0.0753058024    0.3238172062    0.0778325023         -0.0042
C425       C    0.0839758842    0.3350351567    0.0844490344         -0.0042
C426       C    0.0767593169    0.3478542991    0.0889769629         -0.0042
C427       C    0.0610310891    0.3492677233    0.0875971402         -0.0042
H428       H    0.0971855745    0.3118286481    0.0988860870         -0.0042
H429       H    0.1242521453    0.3085399440    0.1051507594         -0.0042
H430       H    0.1509630378    0.3179666031    0.1041485630         -0.0042
H431       H    0.1689167049    0.3369949211    0.0960627756         -0.0042
H432       H    0.1736226680    0.3611060843    0.0828778718         -0.0042
H433       H    0.1633128383    0.3824619247    0.0687079320         -0.0042
H434       H    0.0292699326    0.3289528588    0.0776805935         -0.0042
H435       H    0.1327404294    0.3765109700    0.0381827648         -0.0042
H436       H    0.1170030754    0.3950854474    0.0254783622         -0.0042
H437       H    0.1156063310    0.4186226528    0.0700807274         -0.0042
H438       H    0.1315647326    0.4001259511    0.0825621977         -0.0042
H439       H    0.0997860646    0.4153865018    0.0276978189         -0.0042
H440       H    0.0956764312    0.3464536106    0.0153853628         -0.0042
H441       H    0.0803652874    0.3686380563    0.0126240926         -0.0042
H442       H    0.0686812252    0.3904816941    0.0255781386         -0.0042
H443       H    0.0645783745    0.4051326153    0.0497420353         -0.0042
H444       H    0.0697607907    0.4095860965    0.0789099846         -0.0042
H445       H    0.0824261911    0.4021140213    0.1038926380         -0.0042
H446       H    0.1189695401    0.2860522439    0.0540358574         -0.0042
H447       H    0.1305558737    0.3561618760    0.1505338024         -0.0042
H448       H    0.0791208670    0.3772054927    0.1195084477         -0.0042
H449       H    0.0889413652    0.3654614108    0.1435959338         -0.0042
H450       H    0.1342117372    0.3669421108    0.1238577398         -0.0042
H451       H    0.1242793759    0.3789606132    0.0999074108         -0.0042
H452       H    0.0530658665    0.3162299746    0.0717423348         -0.0042
H453       H    0.0806689242    0.3138506553    0.0741186974         -0.0042
H454       H    0.0831783089    0.3564320664    0.0944373700         -0.0042
H455       H    0.0557259919    0.3591209064    0.0917403247         -0.0042
C456       C    0.1095637844    0.3370171819    0.0425955753         -0.0042
C457       C    0.1247143509    0.3354233146    0.0472168163         -0.0042
C458       C    0.1305120188    0.3217071497    0.0507411036         -0.0042
C459       C    0.1211995922    0.3093649229    0.0499354526         -0.0042
C460       C    0.1058888657    0.3107169601    0.0456269446         -0.0042
C461       C    0.0998369634    0.3241060399    0.0417778349         -0.0042
H462       H    0.1320659208    0.3447543819    0.0480026466         -0.0042
H463       H    0.1423078927    0.3207572791    0.0542091460         -0.0042
H464       H    0.0986056887    0.3013142053    0.0450732035         -0.0042
H465       H    0.0879859697    0.3250069323    0.0385136675         -0.0042
C466       C    0.2847779039    0.1382529761    0.9476975891         -0.0042
C467       C    0.2792691094    0.1375547296    0.9635002619         -0.0042
C468       C    0.2639849646    0.1343107108    0.9663606122         -0.0042
C469       C    0.2541177849    0.1319257238    0.9534960452         -0.0042
C470       C    0.2386097311    0.1289619155    0.9557651884         -0.0042
C471       C    0.2289654238    0.1269923769    0.9425432370         -0.0042
C472       C    0.2346844557    0.1281195384    0.9269002356         -0.0042
C473       C    0.2254626205    0.1264182402    0.9133024175         -0.0042
C474       C    0.2317330677    0.1278437798    0.8979149205         -0.0042
C475       C    0.2471927076    0.1311458636    0.8962888833         -0.0042
C476       C    0.2501447610    0.1311352212    0.9246536064         -0.0042
C477       C    0.2599621762    0.1327870068    0.9378967780         -0.0042
C478       C    0.3493089585    0.1456406250    0.9422570852         -0.0042
C479       C    0.2544224132    0.1326525983    0.8806319725         -0.0042
C480       C    0.2573983206    0.1464296938    0.8745494500         -0.0042
C481       C    0.2667415729    0.1480800951    0.8611896720         -0.0042
C482       C    0.2734343121    0.1359832067    0.8539556998         -0.0042
C483       C    0.2698314919    0.1221223863    0.8596464140         -0.0042
C484       C    0.2603453259    0.1204834961    0.8729104302         -0.0042
C485       C    0.2855942529    0.1382097001    0.8421180979         -0.0042
C486       C    0.2811296041    0.1684836673    0.9074423494         -0.0042
C487       C    0.2882172048    0.1793240829    0.8983676242         -0.0042
C488       C    0.2978583614    0.1755158568    0.8856978509         -0.0042
C489       C    0.3009768286    0.1609363002    0.8826326865         -0.0042
C490       C    0.3115735863    0.1566035035    0.8710308883         -0.0042
C491       C    0.3152136575    0.1419527472    0.8691716036         -0.0042
C492       C    0.3081536656    0.1314413007    0.8787401687         -0.0042
C493       C    0.3119176602    0.1167847641    0.8776716300         -0.0042
C494       C    0.3051357298    0.1067875431    0.8880267455         -0.0042
C495       C    0.2943031997    0.1114414138    0.8992515819         -0.0042
C496       C    0.2972137295    0.1356753031    0.8900315498         -0.0042
C497       C    0.2936190204    0.1504410838    0.8919432947         -0.0042
C498       C    0.2533930455    0.1813508897    0.9682843135         -0.0042
C499       C    0.2716355890    0.0766237166    0.9508813307         -0.0042
Cu500     Cu    0.2767289246    0.1368092533    0.9125144528             1.0
N501       N    0.2750051667    0.1356254761    0.9354284774         -0.0042
N502       N    0.2557586322    0.1327132051    0.9096389955         -0.0042
N503       N    0.2835390747    0.1544873479    0.9034402608         -0.0042
N504       N    0.2905042766    0.1256614258    0.8996754720         -0.0042
N505       N    0.3575248880    0.1366027824    0.9341263037         -0.0042
N506       N    0.2947056519    0.1277045349    0.8384071140         -0.0042
N507       N    0.2389092163    0.1801801362    0.9708852137         -0.0042
N508       N    0.2806869637    0.0722896247    0.9621791964         -0.0042
C509       C    0.2884199922    0.1015252483    0.9115042332         -0.0042
C510       C    0.2985603618    0.0937860619    0.9211963841         -0.0042
C511       C    0.2931770494    0.0854905663    0.9339225182         -0.0042
C512       C    0.2775295000    0.0846847951    0.9370257699         -0.0042
C513       C    0.2673825506    0.0920573212    0.9269880039         -0.0042
C514       C    0.2728104513    0.1004407298    0.9143297952         -0.0042
C515       C    0.3325866926    0.1447767302    0.9419489572         -0.0042
C516       C    0.3240912912    0.1541115579    0.9516639723         -0.0042
C517       C    0.3083914458    0.1524179108    0.9530196348         -0.0042
C518       C    0.3009278534    0.1413812528    0.9446289981         -0.0042
C519       C    0.3093011894    0.1324999197    0.9343521927         -0.0042
C520       C    0.3250023589    0.1341609525    0.9329684964         -0.0042
H521       H    0.2867750926    0.1393325257    0.9735670352         -0.0042
H522       H    0.2598890085    0.1337484017    0.9785696808         -0.0042
H523       H    0.2339352757    0.1282480525    0.9677303684         -0.0042
H524       H    0.2170595018    0.1247344901    0.9445447663         -0.0042
H525       H    0.2134985586    0.1240079301    0.9145575505         -0.0042
H526       H    0.2246386146    0.1264604631    0.8874481678         -0.0042
H527       H    0.3546200854    0.1537165002    0.9497606155         -0.0042
H528       H    0.2530950715    0.1559138761    0.8806151817         -0.0042
H529       H    0.2695084204    0.1588662884    0.8571385112         -0.0042
H530       H    0.2749205153    0.1126129292    0.8543644864         -0.0042
H531       H    0.2582814574    0.1097868953    0.8776536344         -0.0042
H532       H    0.2882827803    0.1492046350    0.8388373984         -0.0042
H533       H    0.2866140075    0.1905953039    0.9013444252         -0.0042
H534       H    0.3033772139    0.1839219519    0.8788334643         -0.0042
H535       H    0.3173010857    0.1645488955    0.8636900927         -0.0042
H536       H    0.3237075853    0.1388848715    0.8604507763         -0.0042
H537       H    0.3203600812    0.1131281388    0.8691736737         -0.0042
H538       H    0.3084578767    0.0955534795    0.8874380249         -0.0042
H539       H    0.2608770086    0.1852471028    0.9776057118         -0.0042
H540       H    0.2594653820    0.0753749542    0.9520924944         -0.0042
H541       H    0.3106878700    0.0945890006    0.9192648988         -0.0042
H542       H    0.3012554944    0.0798823183    0.9414481007         -0.0042
H543       H    0.2552713335    0.0915645140    0.9291285105         -0.0042
H544       H    0.2648425486    0.1060456326    0.9067419544         -0.0042
H545       H    0.3296684789    0.1624213680    0.9586233773         -0.0042
H546       H    0.3021181534    0.1594965946    0.9609312849         -0.0042
H547       H    0.3038242894    0.1237557727    0.9281281252         -0.0042
H548       H    0.3312312338    0.1267855412    0.9253624125         -0.0042
C549       C    0.2734615419    0.1720345476    0.9225134059         -0.0042
C550       C    0.2584870594    0.1679048729    0.9255792968         -0.0042
C551       C    0.2518694521    0.1708557415    0.9404767621         -0.0042
C552       C    0.2601844346    0.1777996729    0.9526566040         -0.0042
C553       C    0.2753163198    0.1818007712    0.9499785303         -0.0042
C554       C    0.2821462735    0.1792773817    0.9352655151         -0.0042
H555       H    0.2518997995    0.1624899383    0.9164390711         -0.0042
H556       H    0.2402257567    0.1676126353    0.9425174415         -0.0042
H557       H    0.2818419128    0.1870572152    0.9592926774         -0.0042
H558       H    0.2938515837    0.1823836919    0.9333685053         -0.0042
C559       C    0.2847344290    0.8604238227    0.0664676118         -0.0042
C560       C    0.2792255452    0.8611231874    0.0506653792         -0.0042
C561       C    0.2639416699    0.8643689214    0.0478063048         -0.0042
C562       C    0.2540748336    0.8667545181    0.0606717077         -0.0042
C563       C    0.2385670294    0.8697200454    0.0584038455         -0.0042
C564       C    0.2289230308    0.8716901578    0.0716265988         -0.0042
C565       C    0.2346421112    0.8705618614    0.0872691263         -0.0042
C566       C    0.2254205638    0.8722636760    0.1008677036         -0.0042
C567       C    0.2316910297    0.8708369517    0.1162546732         -0.0042
C568       C    0.2471503828    0.8675331758    0.1178794189         -0.0042
C569       C    0.2501021620    0.8675444654    0.0895144760         -0.0042
C570       C    0.2599192973    0.8658920883    0.0762705028         -0.0042
C571       C    0.3492648592    0.8530291560    0.0719029912         -0.0042
C572       C    0.2543801023    0.8660251458    0.1335357273         -0.0042
C573       C    0.2573548065    0.8522475294    0.1396174539         -0.0042
C574       C    0.2666980371    0.8505956866    0.1529764658         -0.0042
C575       C    0.2733919547    0.8626916214    0.1602104422         -0.0042
C576       C    0.2697903492    0.8765530158    0.1545205742         -0.0042
C577       C    0.2603042047    0.8781933594    0.1412573343         -0.0042
C578       C    0.2855518063    0.8604634397    0.1720470437         -0.0042
C579       C    0.2810837502    0.8301921559    0.1067218648         -0.0042
C580       C    0.2881704459    0.8193506827    0.1157956096         -0.0042
C581       C    0.2978120742    0.8231574592    0.1284648217         -0.0042
C582       C    0.3009319068    0.8377365817    0.1315303605         -0.0042
C583       C    0.3115291740    0.8420678636    0.1431315482         -0.0042
C584       C    0.3151706054    0.8567181715    0.1449911712         -0.0042
C585       C    0.3081114836    0.8672306893    0.1354235708         -0.0042
C586       C    0.3118768313    0.8818867910    0.1364924390         -0.0042
C587       C    0.3050957164    0.8918850806    0.1261382460         -0.0042
C588       C    0.2942626511    0.8872327369    0.1149140244         -0.0042
C589       C    0.2971710502    0.8629982275    0.1241328300         -0.0042
C590       C    0.2935749698    0.8482328922    0.1222207386         -0.0042
C591       C    0.2533454227    0.8173299296    0.0458814353         -0.0042
C592       C    0.2715977293    0.9220545813    0.0632874176         -0.0042
Cu593     Cu    0.2766859233    0.8618672074    0.1016514089             1.0
N594       N    0.2749620516    0.8630519424    0.0787375623         -0.0042
N595       N    0.2557160343    0.8659653790    0.1045286021         -0.0042
N596       N    0.2834945420    0.8441880846    0.1107243564         -0.0042
N597       N    0.2904624212    0.8730131416    0.1144898257         -0.0042
N598       N    0.3574816956    0.8620658534    0.0800335357         -0.0042
N599       N    0.2946642037    0.8709675145    0.1757577849         -0.0042
N600       N    0.2388616756    0.8185023049    0.0432816650         -0.0042
N601       N    0.2806493914    0.9263880970    0.0519890567         -0.0042
C602       C    0.2883802332    0.8971499399    0.1026622251         -0.0042
C603       C    0.2985212177    0.9048883805    0.0929696397         -0.0042
C604       C    0.2931385418    0.9131848767    0.0802442529         -0.0042
C605       C    0.2774910363    0.9139924100    0.0771422027         -0.0042
C606       C    0.2673435088    0.9066206187    0.0871804190         -0.0042
C607       C    0.2727707643    0.8982362071    0.0998378735         -0.0042
C608       C    0.3325426756    0.8538948113    0.0722124033         -0.0042
C609       C    0.3240463247    0.8445612120    0.0624976336         -0.0042
C610       C    0.3083466215    0.8462565676    0.0611432136         -0.0042
C611       C    0.3008841216    0.8572937320    0.0695348669         -0.0042
C612       C    0.3092583710    0.8661738306    0.0798114172         -0.0042
C613       C    0.3249594016    0.8645110882    0.0811938723         -0.0042
H614       H    0.2867312678    0.8593449370    0.0405979716         -0.0042
H615       H    0.2598456469    0.8649320774    0.0355975655         -0.0042
H616       H    0.2338925233    0.8704348082    0.0464390441         -0.0042
H617       H    0.2170172963    0.8739493732    0.0696260522         -0.0042
H618       H    0.2134567107    0.8746752956    0.0996135640         -0.0042
H619       H    0.2245968049    0.8722206656    0.1267220130         -0.0042
H620       H    0.3545751735    0.8449529724    0.0643987281         -0.0042
H621       H    0.2530506296    0.8427640081    0.1335516485         -0.0042
H622       H    0.2694639357    0.8398090633    0.1570269709         -0.0042
H623       H    0.2748802949    0.8860617552    0.1598025178         -0.0042
H624       H    0.2582412701    0.8888903392    0.1365147295         -0.0042
H625       H    0.2882393582    0.8494681092    0.1753270847         -0.0042
H626       H    0.2865661871    0.8080797324    0.1128184589         -0.0042
H627       H    0.3033302232    0.8147505474    0.1353284464         -0.0042
H628       H    0.3172560166    0.8341216167    0.1504715853         -0.0042
H629       H    0.3236648988    0.8597848525    0.1537114923         -0.0042
H630       H    0.3203196697    0.8855422348    0.1449899173         -0.0042
H631       H    0.3084188982    0.9031187724    0.1267271864         -0.0042
H632       H    0.2608289383    0.8134332393    0.0365593161         -0.0042
H633       H    0.2594276250    0.9233046735    0.0620772143         -0.0042
H634       H    0.3106486711    0.9040840921    0.0949001862         -0.0042
H635       H    0.3012174275    0.9187925238    0.0727183009         -0.0042
H636       H    0.2552323162    0.9071147809    0.0850408370         -0.0042
H637       H    0.2648024218    0.8926318913    0.1074260756         -0.0042
H638       H    0.3296226837    0.8362510468    0.0555374663         -0.0042
H639       H    0.3020726038    0.8391788159    0.0532317370         -0.0042
H640       H    0.3037823324    0.8749183469    0.0860362576         -0.0042
H641       H    0.3311890260    0.8718855825    0.0887997984         -0.0042
C642       C    0.2734152166    0.8266425976    0.0916512328         -0.0042
C643       C    0.2584410828    0.8307739618    0.0885866317         -0.0042
C644       C    0.2518230606    0.8278242981    0.0736895374         -0.0042
C645       C    0.2601372887    0.8208798984    0.0615087858         -0.0042
C646       C    0.2752688333    0.8168771070    0.0641855633         -0.0042
C647       C    0.2820991609    0.8193992754    0.0788981738         -0.0042
H648       H    0.2518544076    0.8361892847    0.0977275745         -0.0042
H649       H    0.2401796426    0.8310687064    0.0716498622         -0.0042
H650       H    0.2817938543    0.8116202872    0.0548707103         -0.0042
H651       H    0.2938042048    0.8162916614    0.0807941804         -0.0042
C652       C    0.1001848215    0.6657527825    0.9261549392         -0.0042
C653       C    0.1051516711    0.6784661330    0.9185585416         -0.0042
C654       C    0.1205437766    0.6803176023    0.9149210568         -0.0042
C655       C    0.1310441047    0.6695970326    0.9190080189         -0.0042
C656       C    0.1466572865    0.6711169532    0.9159293493         -0.0042
C657       C    0.1569137199    0.6602832969    0.9205762236         -0.0042
C658       C    0.1516954830    0.6478779914    0.9285102675         -0.0042
C659       C    0.1615222907    0.6368363058    0.9335691976         -0.0042
C660       C    0.1557203256    0.6247336860    0.9416492104         -0.0042
C661       C    0.1401033079    0.6238854244    0.9447699956         -0.0042
C662       C    0.1361246658    0.6464028229    0.9316324508         -0.0042
C663       C    0.1257218008    0.6570978638    0.9266530857         -0.0042
C664       C    0.0354862979    0.6603934263    0.9322661219         -0.0042
C665       C    0.1333489137    0.6115391433    0.9529988020         -0.0042
C666       C    0.1294470210    0.6127076598    0.9691805251         -0.0042
C667       C    0.1204911894    0.6021241355    0.9763816722         -0.0042
C668       C    0.1151090481    0.5903983437    0.9673922659         -0.0042
C669       C    0.1196567784    0.5889202872    0.9513425663         -0.0042
C670       C    0.1287574964    0.5994419473    0.9442045996         -0.0042
C671       C    0.1032433849    0.5811053302    0.9743060020         -0.0042
C672       C    0.1027467760    0.6474479656    0.9745326790         -0.0042
C673       C    0.0951064886    0.6446121936    0.9889561344         -0.0042
C674       C    0.0862884994    0.6320884290    0.9904481912         -0.0042
C675       C    0.0845228909    0.6228181251    0.9773107698         -0.0042
C676       C    0.0747581494    0.6108478145    0.9777440633         -0.0042
C677       C    0.0724348217    0.6024760614    0.9639560166         -0.0042
C678       C    0.0800018042    0.6058545866    0.9496294082         -0.0042
C679       C    0.0775265607    0.5981052799    0.9354673587         -0.0042
C680       C    0.0847444472    0.6023280797    0.9212721681         -0.0042
C681       C    0.0947307897    0.6141577711    0.9213407233         -0.0042
C682       C    0.0901280599    0.6175546095    0.9492600499         -0.0042
C683       C    0.0923945935    0.6260174373    0.9631348638         -0.0042
C684       C    0.1270605079    0.7038825331    0.9609779365         -0.0042
C685       C    0.1183502269    0.6412691097    0.8647367098         -0.0042
Cu686     Cu    0.1096125239    0.6374581675    0.9412636790             1.0
N687       N    0.1105896958    0.6553929657    0.9297256050         -0.0042
N688       N    0.1309501732    0.6347121987    0.9397294083         -0.0042
N689       N    0.1016725483    0.6377391450    0.9624379768         -0.0042
N690       N    0.0973012146    0.6211952896    0.9353692991         -0.0042
N691       N    0.0283621539    0.6492324456    0.9266135590         -0.0042
N692       N    0.0951890034    0.5727596929    0.9651379629         -0.0042
N693       N    0.1414903163    0.7064114859    0.9594559557         -0.0042
N694       N    0.1092859002    0.6477457669    0.8547931884         -0.0042
C695       C    0.1009771657    0.6198767271    0.9063075227         -0.0042
C696       C    0.0911738365    0.6234511874    0.8936818835         -0.0042
C697       C    0.0967684220    0.6302499379    0.8800004815         -0.0042
C698       C    0.1123081907    0.6334250487    0.8786743490         -0.0042
C699       C    0.1221616239    0.6294080764    0.8910970991         -0.0042
C700       C    0.1165127323    0.6227005587    0.9048315402         -0.0042
C701       C    0.0522264035    0.6608819863    0.9325022318         -0.0042
C702       C    0.0595458537    0.6734653652    0.9377393062         -0.0042
C703       C    0.0752765329    0.6748418915    0.9363400238         -0.0042
C704       C    0.0839477197    0.6636237335    0.9297245649         -0.0042
C705       C    0.0767322301    0.6508040095    0.9251977934         -0.0042
C706       C    0.0610040065    0.6493901629    0.9265776834         -0.0042
H707       H    0.0971568400    0.6868295984    0.9152854182         -0.0042
H708       H    0.1242235874    0.6901187368    0.9090205509         -0.0042
H709       H    0.1509350080    0.6806930464    0.9100237275         -0.0042
H710       H    0.1688893714    0.6616659369    0.9181113482         -0.0042
H711       H    0.1735960375    0.6375559224    0.9312985022         -0.0042
H712       H    0.1632866783    0.6162008027    0.9454703765         -0.0042
H713       H    0.0292409750    0.6697047107    0.9364922219         -0.0042
H714       H    0.1327120350    0.6221530298    0.9759948693         -0.0042
H715       H    0.1169750671    0.6035789814    0.9887009272         -0.0042
H716       H    0.1155825156    0.5800383760    0.9441007346         -0.0042
H717       H    0.1315405223    0.5985346730    0.9316176172         -0.0042
H718       H    0.0997594609    0.5832771843    0.9864832796         -0.0042
H719       H    0.0956447667    0.6522108636    0.9987893401         -0.0042
H720       H    0.0803348414    0.6300261134    0.0015526013         -0.0042
H721       H    0.0686529352    0.6081811110    0.9886005295         -0.0042
H722       H    0.0645524749    0.5935282359    0.9644379721         -0.0042
H723       H    0.0697369491    0.5890727351    0.9352704559         -0.0042
H724       H    0.0824034066    0.5965433556    0.9102871623         -0.0042
H725       H    0.1189364576    0.7126101031    0.9601333504         -0.0042
H726       H    0.1305330621    0.6424936037    0.8636419404         -0.0042
H727       H    0.0790974780    0.6214505994    0.8946690344         -0.0042
H728       H    0.0889187117    0.6331931988    0.8705805013         -0.0042
H729       H    0.1341879720    0.6317154968    0.8903190152         -0.0042
H730       H    0.1242549007    0.6196984630    0.9142704161         -0.0042
H731       H    0.0530357511    0.6824288371    0.9424293993         -0.0042
H732       H    0.0806388050    0.6848089009    0.9400529281         -0.0042
H733       H    0.0831520915    0.6422260463    0.9197382061         -0.0042
H734       H    0.0556997781    0.6395364910    0.9224353892         -0.0042
C735       C    0.1095331902    0.6616457109    0.9715783106         -0.0042
C736       C    0.1246839390    0.6632397374    0.9669569833         -0.0042
C737       C    0.1304809643    0.6769558312    0.9634314502         -0.0042
C738       C    0.1211677170    0.6892978071    0.9642359215         -0.0042
C739       C    0.1058568122    0.6879455818    0.9685444927         -0.0042
C740       C    0.0998055121    0.6745565890    0.9723948169         -0.0042
H741       H    0.1320361402    0.6539088570    0.9661720462         -0.0042
H742       H    0.1422769905    0.6779058356    0.9599633677         -0.0042
H743       H    0.0985730135    0.6973481345    0.9690973343         -0.0042
H744       H    0.0879543756    0.6736555457    0.9756590198         -0.0042
C745       C    0.6556537667    0.8603385326    0.4477258811         -0.0042
C746       C    0.6611623390    0.8610370140    0.4635282731         -0.0042
C747       C    0.6764465898    0.8642804694    0.4663877916         -0.0042
C748       C    0.6863140889    0.8666646567    0.4535226758         -0.0042
C749       C    0.7018222451    0.8696278745    0.4557909883         -0.0042
C750       C    0.7114668582    0.8715966122    0.4425685150         -0.0042
C751       C    0.7057480259    0.8704692296    0.4269258215         -0.0042
C752       C    0.7149701604    0.8721697337    0.4133275118         -0.0042
C753       C    0.7086998946    0.8707440039    0.3979403598         -0.0042
C754       C    0.6932401261    0.8674425275    0.3963151648         -0.0042
C755       C    0.6902876154    0.8674541359    0.4246800229         -0.0042
C756       C    0.6804699090    0.8658031591    0.4379237114         -0.0042
C757       C    0.5911224534    0.8529534590    0.4422886355         -0.0042
C758       C    0.6860106024    0.8659356353    0.3806586464         -0.0042
C759       C    0.6830341470    0.8521584858    0.3745768147         -0.0042
C760       C    0.6736910329    0.8505080847    0.3612175318         -0.0042
C761       C    0.6669989779    0.8626050425    0.3539833801         -0.0042
C762       C    0.6706023564    0.8764658787    0.3596733713         -0.0042
C763       C    0.6800883852    0.8781047598    0.3729368863         -0.0042
C764       C    0.6548391237    0.8603787138    0.3421464257         -0.0042
C765       C    0.6593012982    0.8301064936    0.4074716902         -0.0042
C766       C    0.6522133354    0.8192661096    0.3983977263         -0.0042
C767       C    0.6425725619    0.8230743690    0.3857282422         -0.0042
C768       C    0.6394548281    0.8376539669    0.3826626344         -0.0042
C769       C    0.6288584609    0.8419868691    0.3710611481         -0.0042
C770       C    0.6252191069    0.8566377247    0.3692014411         -0.0042
C771       C    0.6322794375    0.8671491554    0.3787692594         -0.0042
C772       C    0.6285161476    0.8818058198    0.3777003038         -0.0042
C773       C    0.6352983798    0.8918030602    0.3880547059         -0.0042
C774       C    0.6461305104    0.8871490629    0.3992792325         -0.0042
C775       C    0.6432189927    0.8629150237    0.3900603088         -0.0042
C776       C    0.6468129784    0.8481491473    0.3919724827         -0.0042
C777       C    0.6870362713    0.8172398985    0.4683128992         -0.0042
C778       C    0.6687989211    0.9219673290    0.4509065405         -0.0042
Cu779     Cu    0.6637033816    0.8617808712    0.4125423174             1.0
N780       N    0.6654268252    0.8629652545    0.4354562153         -0.0042
N781       N    0.6846739125    0.8658759450    0.4096657332         -0.0042
N782       N    0.6568925487    0.8441027965    0.4034691491         -0.0042
N783       N    0.6499287597    0.8729289023    0.3997035203         -0.0042
N784       N    0.5829070791    0.8619914090    0.4341578675         -0.0042
N785       N    0.6457282774    0.8708841554    0.3384354373         -0.0042
N786       N    0.7015201134    0.8184101148    0.4709130877         -0.0042
N787       N    0.6597475673    0.9263021397    0.4622046472         -0.0042
C788       C    0.6520139853    0.8970653420    0.4115312150         -0.0042
C789       C    0.6418738223    0.9048052457    0.4212235197         -0.0042
C790       C    0.6472573185    0.9131008902    0.4339490731         -0.0042
C791       C    0.6629048555    0.9139060899    0.4370515744         -0.0042
C792       C    0.6730516212    0.9065328359    0.4270136395         -0.0042
C793       C    0.6676235315    0.8981492823    0.4143560170         -0.0042
C794       C    0.6078447648    0.8538166355    0.4419797054         -0.0042
C795       C    0.6163395716    0.8444817356    0.4516947063         -0.0042
C796       C    0.6320394745    0.8461747571    0.4530495802         -0.0042
C797       C    0.6395037200    0.8572108499    0.4446581571         -0.0042
C798       C    0.6311309664    0.8660922334    0.4343813786         -0.0042
C799       C    0.6154297414    0.8644318254    0.4329984696         -0.0042
H800       H    0.6536561099    0.8592598346    0.4735954623         -0.0042
H801       H    0.6805423752    0.8648429666    0.4785966496         -0.0042
H802       H    0.7064965410    0.8703418940    0.4677559251         -0.0042
H803       H    0.7233728538    0.8738540535    0.4445694073         -0.0042
H804       H    0.7269343150    0.8745795737    0.4145819988         -0.0042
H805       H    0.7157945815    0.8721267095    0.3874732260         -0.0042
H806       H    0.5858108266    0.8448780315    0.4497927344         -0.0042
H807       H    0.6873368534    0.8426743008    0.3806427304         -0.0042
H808       H    0.6709237449    0.8397218887    0.3571669318         -0.0042
H809       H    0.6655138643    0.8859753950    0.3543912948         -0.0042
H810       H    0.6821526789    0.8888014137    0.3776795655         -0.0042
H811       H    0.6521501335    0.8493837958    0.3388662918         -0.0042
H812       H    0.6538159560    0.8079949089    0.4013749071         -0.0042
H813       H    0.6370534259    0.8146683045    0.3788644470         -0.0042
H814       H    0.6231307073    0.8340415024    0.3637209350         -0.0042
H815       H    0.6167254637    0.8597057020    0.3604808801         -0.0042
H816       H    0.6200740353    0.8854625513    0.3692025878         -0.0042
H817       H    0.6319767693    0.9030372472    0.3874656859         -0.0042
H818       H    0.6795519751    0.8133442790    0.4776347976         -0.0042
H819       H    0.6809691672    0.9232156112    0.4521170955         -0.0042
H820       H    0.6297463076    0.9040027640    0.4192926233         -0.0042
H821       H    0.6391790151    0.9187097038    0.4414748007         -0.0042
H822       H    0.6851628268    0.9070251930    0.4291535705         -0.0042
H823       H    0.6755912937    0.8925438167    0.4067680361         -0.0042
H824       H    0.6107618817    0.8361723682    0.4586547014         -0.0042
H825       H    0.6383123072    0.8390960418    0.4609612272         -0.0042
H826       H    0.6366083771    0.8748359637    0.4281567080         -0.0042
H827       H    0.6092013352    0.8718072754    0.4253923748         -0.0042
C828       C    0.6669689506    0.8265557349    0.4225425377         -0.0042
C829       C    0.6819435773    0.8306848654    0.4256075753         -0.0042
C830       C    0.6885608057    0.8277341578    0.4405048557         -0.0042
C831       C    0.6802453010    0.8207909401    0.4526853584         -0.0042
C832       C    0.6651132713    0.8167904040    0.4500081400         -0.0042
C833       C    0.6582836735    0.8193136471    0.4352953367         -0.0042
H834       H    0.6885312388    0.8360992498    0.4164668296         -0.0042
H835       H    0.7002046204    0.8309768307    0.4425448704         -0.0042
H836       H    0.6585872815    0.8115345128    0.4593227980         -0.0042
H837       H    0.6465782482    0.8162077770    0.4333989890         -0.0042
C838       C    0.8401849856    0.6656977358    0.5880182611         -0.0042
C839       C    0.8352184417    0.6784118164    0.5956135655         -0.0042
C840       C    0.8198264551    0.6802640117    0.5992513712         -0.0042
C841       C    0.8093259375    0.6695434302    0.5951658115         -0.0042
C842       C    0.7937128561    0.6710640401    0.5982448419         -0.0042
C843       C    0.7834562160    0.6602303217    0.5935993733         -0.0042
C844       C    0.7886741393    0.6478242527    0.5856663840         -0.0042
C845       C    0.7788471115    0.6367824608    0.5806088660         -0.0042
C846       C    0.7846487607    0.6246790494    0.5725298588         -0.0042
C847       C    0.8002656810    0.6238300953    0.5694086463         -0.0042
C848       C    0.8042448552    0.6463483928    0.5825438368         -0.0042
C849       C    0.8146479357    0.6570435172    0.5875218052         -0.0042
C850       C    0.9048832949    0.6603360366    0.5819054906         -0.0042
C851       C    0.8070197535    0.6114829836    0.5611808384         -0.0042
C852       C    0.8109211778    0.6126501379    0.5449988723         -0.0042
C853       C    0.8198767292    0.6020657986    0.5377984775         -0.0042
C854       C    0.8252590590    0.5903405453    0.5467888658         -0.0042
C855       C    0.8207117913    0.5888638594    0.5628388601         -0.0042
C856       C    0.8116113512    0.5993863337    0.5699760853         -0.0042
C857       C    0.8371244588    0.5810466548    0.5398756593         -0.0042
C858       C    0.8376214900    0.6473892581    0.5396424134         -0.0042
C859       C    0.8452613349    0.6445521516    0.5252189882         -0.0042
C860       C    0.8540791991    0.6320280168    0.5237278797         -0.0042
C861       C    0.8558451341    0.6227586761    0.5368661590         -0.0042
C862       C    0.8656097855    0.6107880498    0.5364337282         -0.0042
C863       C    0.8679334646    0.6024172939    0.5502225257         -0.0042
C864       C    0.8603669253    0.6057971441    0.5645490479         -0.0042
C865       C    0.8628425352    0.5980488592    0.5787117817         -0.0042
C866       C    0.8556250935    0.6022729636    0.5929067914         -0.0042
C867       C    0.8456388255    0.6141029385    0.5928373946         -0.0042
C868       C    0.8502407561    0.6174974883    0.5649175820         -0.0042
C869       C    0.8479738692    0.6259593105    0.5510420065         -0.0042
C870       C    0.8133085216    0.7038255750    0.5531923774         -0.0042
C871       C    0.8220212284    0.6412193303    0.6494395029         -0.0042
Cu872     Cu    0.8307566560    0.6374022271    0.5729126246             1.0
N873       N    0.8297799394    0.6553379443    0.5844489591         -0.0042
N874       N    0.8094190341    0.6346569940    0.5744478647         -0.0042
N875       N    0.8386960106    0.6376813403    0.5517380393         -0.0042
N876       N    0.8430680335    0.6211394482    0.5788082078         -0.0042
N877       N    0.9120075330    0.6491752863    0.5875589228         -0.0042
N878       N    0.8451790560    0.5727014924    0.5490442591         -0.0042
N879       N    0.7988787743    0.7063550627    0.5547145807         -0.0042
N880       N    0.8310858893    0.6476964930    0.6593820879         -0.0042
C881       C    0.8393929286    0.6198232359    0.6078702347         -0.0042
C882       C    0.8491966522    0.6233983873    0.6204951999         -0.0042
C883       C    0.8436025131    0.6301983559    0.6341761134         -0.0042
C884       C    0.8280628039    0.6333740185    0.6355024408         -0.0042
C885       C    0.8182089793    0.6293563721    0.6230804100         -0.0042
C886       C    0.8238574236    0.6226476307    0.6093464466         -0.0042
C887       C    0.8881431855    0.6608250626    0.5816698803         -0.0042
C888       C    0.8808236627    0.6734082488    0.5764318026         -0.0042
C889       C    0.8650930335    0.6747853380    0.5778314638         -0.0042
C890       C    0.8564219687    0.6635679417    0.5844483144         -0.0042
C891       C    0.8636375086    0.6507483584    0.5889761159         -0.0042
C892       C    0.8793656825    0.6493339505    0.5875958509         -0.0042
H893       H    0.8432134231    0.6867753032    0.5988856012         -0.0042
H894       H    0.8161468812    0.6900657081    0.6051510294         -0.0042
H895       H    0.7894353702    0.6806407128    0.6041496578         -0.0042
H896       H    0.7714806458    0.6616134983    0.5960645040         -0.0042
H897       H    0.7667734361    0.6375026020    0.5828798854         -0.0042
H898       H    0.7770822404    0.6161460900    0.5687097831         -0.0042
H899       H    0.9111285537    0.6696468140    0.5776782667         -0.0042
H900       H    0.8076560244    0.6220950762    0.5381837020         -0.0042
H901       H    0.8233924986    0.6035195917    0.5254789638         -0.0042
H902       H    0.8247862096    0.5799823895    0.5700814357         -0.0042
H903       H    0.8088286896    0.5984801117    0.5825632484         -0.0042
H904       H    0.8406080387    0.5832174680    0.5276980533         -0.0042
H905       H    0.8447228166    0.6521500779    0.5153850496         -0.0042
H906       H    0.8600325173    0.6299646717    0.5126234786         -0.0042
H907       H    0.8717146631    0.6081203315    0.5255773257         -0.0042
H908       H    0.8758157394    0.5934692033    0.5497411960         -0.0042
H909       H    0.8706320942    0.5890161043    0.5789093218         -0.0042
H910       H    0.8579664198    0.5964890200    0.6038922918         -0.0042
H911       H    0.8214326532    0.7125529753    0.5540358357         -0.0042
H912       H    0.8098384333    0.6424442611    0.6505345501         -0.0042
H913       H    0.8612729688    0.6213973739    0.6195078515         -0.0042
H914       H    0.8514525194    0.6331421170    0.6435955460         -0.0042
H915       H    0.8061826691    0.6316642004    0.6238586595         -0.0042
H916       H    0.8161149582    0.6196450302    0.5999081206         -0.0042
H917       H    0.8873336853    0.6823711702    0.5717406111         -0.0042
H918       H    0.8597307166    0.6847522159    0.5741177505         -0.0042
H919       H    0.8572177522    0.6421710025    0.5944367606         -0.0042
H920       H    0.8846699690    0.6394804449    0.5917389448         -0.0042
C921       C    0.8308352545    0.6615874277    0.5425956016         -0.0042
C922       C    0.8156846519    0.6631822492    0.5472172671         -0.0042
C923       C    0.8098878189    0.6768987828    0.5507416352         -0.0042
C924       C    0.8192011224    0.6892404272    0.5499356401         -0.0042
C925       C    0.8345118918    0.6878874264    0.5456267015         -0.0042
C926       C    0.8405629921    0.6744979614    0.5417775017         -0.0042
H927       H    0.8083324135    0.6538516420    0.5480033665         -0.0042
H928       H    0.7980919009    0.6778493961    0.5542100099         -0.0042
H929       H    0.8417957350    0.6972897257    0.5450726929         -0.0042
H930       H    0.8524140267    0.6735963233    0.5385130001         -0.0042
C931       C    0.8401824572    0.3328410043    0.4261130910         -0.0042
C932       C    0.8352170137    0.3201277180    0.4185159028         -0.0042
C933       C    0.8198252870    0.3182754617    0.4148781171         -0.0042
C934       C    0.8093239328    0.3289951690    0.4189655600         -0.0042
C935       C    0.7937110683    0.3274744198    0.4158866057         -0.0042
C936       C    0.7834535624    0.3383072012    0.4205339702         -0.0042
C937       C    0.7886703913    0.3507124415    0.4284687903         -0.0042
C938       C    0.7788424683    0.3617532587    0.4335282281         -0.0042
C939       C    0.7846430365    0.3738558427    0.4416090071         -0.0042
C940       C    0.8002597806    0.3747049311    0.4447300386         -0.0042
C941       C    0.8042408913    0.3521884338    0.4315912552         -0.0042
C942       C    0.8146448421    0.3414942934    0.4266114096         -0.0042
C943       C    0.9048801879    0.3382041235    0.4322253998         -0.0042
C944       C    0.8070127508    0.3870512288    0.4529596373         -0.0042
C945       C    0.8109136122    0.3858821556    0.4691413429         -0.0042
C946       C    0.8198682129    0.3964658859    0.4763432092         -0.0042
C947       C    0.8252501570    0.4081924613    0.4673545423         -0.0042
C948       C    0.8207034276    0.4096710274    0.4513048698         -0.0042
C949       C    0.8116039318    0.3991491492    0.4441661856         -0.0042
C950       C    0.8371146989    0.4174858780    0.4742689606         -0.0042
C951       C    0.8376159041    0.3511432627    0.4744918461         -0.0042
C952       C    0.8452550027    0.3539788000    0.4889155606         -0.0042
C953       C    0.8540720186    0.3665030448    0.4904084460         -0.0042
C954       C    0.8558378859    0.3757741107    0.4772715776         -0.0042
C955       C    0.8656017654    0.3877450134    0.4777056800         -0.0042
C956       C    0.8679254592    0.3961175958    0.4639181420         -0.0042
C957       C    0.8603596966    0.3927393050    0.4495912444         -0.0042
C958       C    0.8628353750    0.4004894691    0.4354296699         -0.0042
C959       C    0.8556187581    0.3962669192    0.4212341461         -0.0042
C960       C    0.8456332333    0.3844365968    0.4213018977         -0.0042
C961       C    0.8502342796    0.3810386641    0.4492210881         -0.0042
C962       C    0.8479673804    0.3725750063    0.4630953888         -0.0042
C963       C    0.8133070274    0.2947078391    0.4609335653         -0.0042
C964       C    0.8220195727    0.3573265790    0.3646960333         -0.0042
Cu965     Cu    0.8307517491    0.3611342780    0.4412233311             1.0
N966       N    0.8297766173    0.3431999902    0.4296842181         -0.0042
N967       N    0.8094140146    0.3638789818    0.4396889475         -0.0042
N968       N    0.8386902884    0.3608527501    0.4623977133         -0.0042
N969       N    0.8430623332    0.3773982216    0.4353300381         -0.0042
N970       N    0.9120039446    0.3493658319    0.4265735659         -0.0042
N971       N    0.8451691305    0.4258324757    0.4651015013         -0.0042
N972       N    0.7988774994    0.2921780549    0.4594112569         -0.0042
N973       N    0.8310850332    0.3508509842    0.3547522560         -0.0042
C974       C    0.8393882884    0.3787179932    0.4062682907         -0.0042
C975       C    0.8491927342    0.3751447747    0.3936425710         -0.0042
C976       C    0.8435995620    0.3683463506    0.3799607090         -0.0042
C977       C    0.8280601052    0.3651703290    0.3786341980         -0.0042
C978       C    0.8182055387    0.3691860664    0.3910570533         -0.0042
C979       C    0.8238530197    0.3758932585    0.4047919499         -0.0042
C980       C    0.8881401001    0.3377144997    0.4324612697         -0.0042
C981       C    0.8808211646    0.3251304013    0.4376975310         -0.0042
C982       C    0.8650906773    0.3237529559    0.4362979707         -0.0042
C983       C    0.8564191655    0.3349708967    0.4296830442         -0.0042
C984       C    0.8636340752    0.3477912985    0.4251570980         -0.0042
C985       C    0.8793621056    0.3492060651    0.4265372680         -0.0042
H986       H    0.8432126512    0.3117649173    0.4152424019         -0.0042
H987       H    0.8161465633    0.3084743884    0.4089770035         -0.0042
H988       H    0.7894344186    0.3178983505    0.4099803815         -0.0042
H989       H    0.7714781764    0.3369239308    0.4180688641         -0.0042
H990       H    0.7667689277    0.3610329959    0.4312573386         -0.0042
H991       H    0.7770758279    0.3823880612    0.4454305659         -0.0042
H992       H    0.9111258675    0.3288930221    0.4364510457         -0.0042
H993       H    0.8076487862    0.3764362428    0.4759551051         -0.0042
H994       H    0.8233835893    0.3950106505    0.4886624254         -0.0042
H995       H    0.8247775708    0.4185535535    0.4440635981         -0.0042
H996       H    0.8088217082    0.4000568724    0.4315792199         -0.0042
H997       H    0.8405979366    0.4153136393    0.4864461579         -0.0042
H998       H    0.8447165767    0.3463796090    0.4987483245         -0.0042
H999       H    0.8600247698    0.3685651843    0.5015130495         -0.0042
H1000      H    0.8717060478    0.3904115626    0.4885623761         -0.0042
H1001      H    0.8758071508    0.4050658927    0.4644007095         -0.0042
H1002      H    0.8706243723    0.4095225131    0.4352333828         -0.0042
H1003      H    0.8579601518    0.4020523347    0.4102495012         -0.0042
H1004      H    0.8214317424    0.2859808215    0.4600885824         -0.0042
H1005      H    0.8098368979    0.3561013736    0.3636010395         -0.0042
H1006      H    0.8612688857    0.3771460727    0.3946299893         -0.0042
H1007      H    0.8514501245    0.3654040499    0.3705406597         -0.0042
H1008      H    0.8061794046    0.3668779288    0.3902786850         -0.0042
H1009      H    0.8161099937    0.3788943999    0.4142308995         -0.0042
H1010      H    0.8873315678    0.3161671062    0.4423871935         -0.0042
H1011      H    0.8597288428    0.3137854254    0.4400102365         -0.0042
H1012      H    0.8572139928    0.3563691287    0.4196979204         -0.0042
H1013      H    0.8846659337    0.3590602756    0.4223956051         -0.0042
C1014      C    0.8308306800    0.3369452374    0.4715365790         -0.0042
C1015      C    0.8156803598    0.3353504877    0.4669149687         -0.0042
C1016      C    0.8098845304    0.3216342043    0.4633885771         -0.0042
C1017      C    0.8191985804    0.3092927739    0.4641924597         -0.0042
C1018      C    0.8345090949    0.3106457479    0.4685013023         -0.0042
C1019      C    0.8405591995    0.3240349301    0.4723524695         -0.0042
H1020      H    0.8083275640    0.3446809450    0.4661304726         -0.0042
H1021      H    0.7980888087    0.3206836305    0.4599202907         -0.0042
H1022      H    0.8417935092    0.3012436255    0.4690536978         -0.0042
H1023      H    0.8524100488    0.3249365564    0.4756168740         -0.0042
C1024      C    0.6556906063    0.1381918855    0.5664048054         -0.0042
C1025      C    0.6611993753    0.1374915365    0.5506022329         -0.0042
C1026      C    0.6764833213    0.1342460031    0.5477423349         -0.0042
C1027      C    0.6863503377    0.1318615883    0.5606072327         -0.0042
C1028      C    0.7018582095    0.1288963099    0.5583385048         -0.0042
C1029      C    0.7115023790    0.1269273990    0.5715607312         -0.0042
C1030      C    0.7057833995    0.1280566627    0.5872035747         -0.0042
C1031      C    0.7150051133    0.1263560653    0.6008016315         -0.0042
C1032      C    0.7087347373    0.1277837240    0.6161889302         -0.0042
C1033      C    0.6932753013    0.1310872063    0.6178145071         -0.0042
C1034      C    0.6903232795    0.1310738095    0.5894497819         -0.0042
C1035      C    0.6805059823    0.1327249790    0.5762063774         -0.0042
C1036      C    0.5911600059    0.1455852302    0.5718442411         -0.0042
C1037      C    0.6860456717    0.1325961647    0.6334712075         -0.0042
C1038      C    0.6830706155    0.1463741372    0.6395518878         -0.0042
C1039      C    0.6737274509    0.1480266879    0.6529114336         -0.0042
C1040      C    0.6670339500    0.1359310931    0.6601470113         -0.0042
C1041      C    0.6706359133    0.1220693872    0.6544581513         -0.0042
C1042      C    0.6801219923    0.1204283464    0.6411943660         -0.0042
C1043      C    0.6548741344    0.1381597991    0.6719843005         -0.0042
C1044      C    0.6593407432    0.1684265284    0.6066560156         -0.0042
C1045      C    0.6522538074    0.1792684628    0.6157292852         -0.0042
C1046      C    0.6426123991    0.1754623370    0.6283995541         -0.0042
C1047      C    0.6394930204    0.1608833512    0.6314666600         -0.0042
C1048      C    0.6288959796    0.1565526182    0.6430690228         -0.0042
C1049      C    0.6252549938    0.1419023468    0.6449302577         -0.0042
C1050      C    0.6323143419    0.1313893318    0.6353631043         -0.0042
C1051      C    0.6285494332    0.1167332067    0.6364335940         -0.0042
C1052      C    0.6353307527    0.1067343563    0.6260798212         -0.0042
C1053      C    0.6461635853    0.1113861842    0.6148543776         -0.0042
C1054      C    0.6432545545    0.1356212760    0.6240711723         -0.0042
C1055      C    0.6468501855    0.1503865697    0.6221574618         -0.0042
C1056      C    0.6870781724    0.1812851380    0.5458123703         -0.0042
C1057      C    0.6688290862    0.0765612478    0.5632293041         -0.0042
Cu1058    Cu    0.6637394556    0.1367512310    0.6015881443             1.0
N1059      N    0.6654631659    0.1355649025    0.5786742800         -0.0042
N1060      N    0.6847094895    0.1326538211    0.6044641749         -0.0042
N1061      N    0.6569303962    0.1544308222    0.6106599686         -0.0042
N1062      N    0.6499633946    0.1256058499    0.6144285949         -0.0042
N1063      N    0.5829435041    0.1365488966    0.5799762179         -0.0042
N1064      N    0.6457620769    0.1276557483    0.6756966745         -0.0042
N1065      N    0.7015619316    0.1801129607    0.5432116449         -0.0042
N1066      N    0.6597774544    0.0722266840    0.5519320052         -0.0042
C1067      C    0.6520461892    0.1014682608    0.6026030571         -0.0042
C1068      C    0.6419053486    0.0937288581    0.5929119261         -0.0042
C1069      C    0.6472881588    0.0854315943    0.5801869058         -0.0042
C1070      C    0.6629356615    0.0846242540    0.5770837816         -0.0042
C1071      C    0.6730830587    0.0919970323    0.5871205767         -0.0042
C1072      C    0.6676556657    0.1003822055    0.5997776598         -0.0042
C1073      C    0.6078822175    0.1447200404    0.5721525057         -0.0042
C1074      C    0.6163782114    0.1540531700    0.5624362558         -0.0042
C1075      C    0.6320779528    0.1523581338    0.5610808395         -0.0042
C1076      C    0.6395408482    0.1413217675    0.5694729582         -0.0042
C1077      C    0.6311669473    0.1324421820    0.5797509380         -0.0042
C1078      C    0.6154658798    0.1341046070    0.5811343926         -0.0042
H1079      H    0.6536935143    0.1392688677    0.5405352129         -0.0042
H1080      H    0.6805792562    0.1336820824    0.5355333467         -0.0042
H1081      H    0.7065326341    0.1281808151    0.5463734260         -0.0042
H1082      H    0.7234081626    0.1246683561    0.5695595184         -0.0042
H1083      H    0.7269690264    0.1239446732    0.5995468355         -0.0042
H1084      H    0.7158290924    0.1264009470    0.6266558765         -0.0042
H1085      H    0.5858493905    0.1536607362    0.5643396264         -0.0042
H1086      H    0.6873744623    0.1558573386    0.6334848961         -0.0042
H1087      H    0.6709612706    0.1588135276    0.6569611516         -0.0042
H1088      H    0.6655462916    0.1125608908    0.6597413412         -0.0042
H1089      H    0.6821851999    0.1097310820    0.6364525918         -0.0042
H1090      H    0.6521862881    0.1491552930    0.6752635295         -0.0042
H1091      H    0.6538577101    0.1905392427    0.6127509822         -0.0042
H1092      H    0.6370940624    0.1838695934    0.6352628120         -0.0042
H1093      H    0.6231689668    0.1644992383    0.6504087508         -0.0042
H1094      H    0.6167608650    0.1388360644    0.6536514835         -0.0042
H1095      H    0.6201067748    0.1130781470    0.6449320273         -0.0042
H1096      H    0.6320079054    0.0955006186    0.6266700365         -0.0042
H1097      H    0.6795944627    0.1851809630    0.5364904426         -0.0042
H1098      H    0.6809992168    0.0753113917    0.5620183226         -0.0042
H1099      H    0.6297778882    0.0945329631    0.5948432887         -0.0042
H1100      H    0.6392093731    0.0798231948    0.5726620614         -0.0042
H1101      H    0.6851942475    0.0915030381    0.5849801514         -0.0042
H1102      H    0.6756239088    0.1059872752    0.6073647628         -0.0042
H1103      H    0.6108015492    0.1623626894    0.5554757350         -0.0042
H1104      H    0.6383516951    0.1594354858    0.5531682529         -0.0042
H1105      H    0.6366432956    0.1236982561    0.5859761792         -0.0042
H1106      H    0.6092365368    0.1267304917    0.5887414526         -0.0042
C1107      C    0.6670090437    0.1719752120    0.5915844951         -0.0042
C1108      C    0.6819832724    0.1678440256    0.5885191744         -0.0042
C1109      C    0.6886010805    0.1707927990    0.5736213239         -0.0042
C1110      C    0.6802865444    0.1777361070    0.5614405450         -0.0042
C1111      C    0.6651549054    0.1817386887    0.5641180654         -0.0042
C1112      C    0.6583247778    0.1792173917    0.5788314085         -0.0042
H1113      H    0.6885701847    0.1624295312    0.5976601310         -0.0042
H1114      H    0.7002445762    0.1675485535    0.5715810921         -0.0042
H1115      H    0.6586296505    0.1869946692    0.5548032087         -0.0042
H1116      H    0.6466196589    0.1823248310    0.5807279888         -0.0042
C1117      C    0.7847150975    0.3604192463    0.0664133454         -0.0042
C1118      C    0.7792065107    0.3611194247    0.0506110420         -0.0042
C1119      C    0.7639221554    0.3643630953    0.0477519401         -0.0042
C1120      C    0.7540545719    0.3667458087    0.0606173629         -0.0042
C1121      C    0.7385463201    0.3697091755    0.0583494302         -0.0042
C1122      C    0.7289016359    0.3716764016    0.0715721560         -0.0042
C1123      C    0.7346204969    0.3705473408    0.0872147049         -0.0042
C1124      C    0.7253982998    0.3722462948    0.1008132322         -0.0042
C1125      C    0.7316686042    0.3708189184    0.1162002007         -0.0042
C1126      C    0.7471284796    0.3675173633    0.1178249715         -0.0042
C1127      C    0.7500810046    0.3675321003    0.0894601169         -0.0042
C1128      C    0.7598987718    0.3658826385    0.0762162175         -0.0042
C1129      C    0.8492466490    0.3530339915    0.0718496596         -0.0042
C1130      C    0.7543580443    0.3660088012    0.1334812963         -0.0042
C1131      C    0.7573349464    0.3522310041    0.1395613223         -0.0042
C1132      C    0.7666781073    0.3505791985    0.1529203941         -0.0042
C1133      C    0.7733697637    0.3626754062    0.1601561366         -0.0042
C1134      C    0.7697659358    0.3765368429    0.1544679616         -0.0042
C1135      C    0.7602798603    0.3781771171    0.1412046563         -0.0042
C1136      C    0.7855296845    0.3604478580    0.1719928058         -0.0042
C1137      C    0.7810685320    0.3301827710    0.1066635679         -0.0042
C1138      C    0.7881568439    0.3193414378    0.1157361138         -0.0042
C1139      C    0.7977974866    0.3231483703    0.1284061029         -0.0042
C1140      C    0.8009147428    0.3377276520    0.1314736252         -0.0042
C1141      C    0.8115109627    0.3420593504    0.1430756859         -0.0042
C1142      C    0.8151498374    0.3567100254    0.1449373170         -0.0042
C1143      C    0.8080891687    0.3672224595    0.1353708737         -0.0042
C1144      C    0.8118519796    0.3818790309    0.1364417542         -0.0042
C1145      C    0.8050694264    0.3918773628    0.1260886598         -0.0042
C1146      C    0.7942374536    0.3872245264    0.1148635164         -0.0042
C1147      C    0.7971497576    0.3629894954    0.1240792625         -0.0042
C1148      C    0.7935562549    0.3482238056    0.1221651495         -0.0042
C1149      C    0.7533340105    0.3173226677    0.0458206553         -0.0042
C1150      C    0.7715679331    0.4220483064    0.0632407634         -0.0042
Cu1151    Cu    0.7766654173    0.3618576760    0.1015970934             1.0
N1152      N    0.7749419470    0.3630445602    0.0786833500         -0.0042
N1153      N    0.7556947513    0.3659522995    0.1044742027         -0.0042
N1154      N    0.7834768226    0.3441786504    0.1106679465         -0.0042
N1155      N    0.7904396687    0.3730043880    0.1144373609         -0.0042
N1156      N    0.8574617242    0.3620711029    0.0799816180         -0.0042
N1157      N    0.7946401860    0.3709529513    0.1757051776         -0.0042
N1158      N    0.7388501315    0.3184930759    0.0432206120         -0.0042
N1159      N    0.7806191512    0.4263844139    0.0519432307         -0.0042
C1160      C    0.7883536613    0.3971421108    0.1026128315         -0.0042
C1161      C    0.7984935767    0.4048831422    0.0929215480         -0.0042
C1162      C    0.7931098163    0.4131801471    0.0801970799         -0.0042
C1163      C    0.7774622546    0.4139855863    0.0770946752         -0.0042
C1164      C    0.7673157244    0.4066111667    0.0871316370         -0.0042
C1165      C    0.7727440812    0.3982262604    0.0997881627         -0.0042
C1166      C    0.8325243094    0.3538970266    0.0721586932         -0.0042
C1167      C    0.8240298123    0.3445631372    0.0624424629         -0.0042
C1168      C    0.8083298549    0.3462562063    0.0610878020         -0.0042
C1169      C    0.8008652447    0.3572913311    0.0694806685         -0.0042
C1170      C    0.8092377031    0.3661716418    0.0797586169         -0.0042
C1171      C    0.8249389816    0.3645111831    0.0811413171         -0.0042
H1172      H    0.7867128030    0.3593433972    0.0405436241         -0.0042
H1173      H    0.7598263580    0.3649269046    0.0355431537         -0.0042
H1174      H    0.7338720072    0.3704244766    0.0463845845         -0.0042
H1175      H    0.7169955676    0.3739339856    0.0695715531         -0.0042
H1176      H    0.7134340672    0.3746561954    0.0995590544         -0.0042
H1177      H    0.7245738667    0.3722004310    0.1266675118         -0.0042
H1178      H    0.8545585434    0.3449594209    0.0643445045         -0.0042
H1179      H    0.7530325527    0.3427474566    0.1334941600         -0.0042
H1180      H    0.7694457454    0.3397925763    0.1569695806         -0.0042
H1181      H    0.7748541147    0.3860458128    0.1597512886         -0.0042
H1182      H    0.7582152200    0.3888742776    0.1364633791         -0.0042
H1183      H    0.7882190318    0.3494525977    0.1752714988         -0.0042
H1184      H    0.7865545928    0.3080705533    0.1127574534         -0.0042
H1185      H    0.8033168934    0.3147415888    0.1352687985         -0.0042
H1186      H    0.8172389718    0.3341132159    0.1504148600         -0.0042
H1187      H    0.8236433759    0.3597771013    0.1536582854         -0.0042
H1188      H    0.8202939681    0.3855348851    0.1449399548         -0.0042
H1189      H    0.8083906699    0.4031115064    0.1266791555         -0.0042
H1190      H    0.7608184387    0.3134281183    0.0364982503         -0.0042
H1191      H    0.7593976469    0.4232966431    0.0620303651         -0.0042
H1192      H    0.8106211166    0.4040805268    0.0948523462         -0.0042
H1193      H    0.8011879405    0.4187898377    0.0726720929         -0.0042
H1194      H    0.7552045039    0.4071036805    0.0849917635         -0.0042
H1195      H    0.7647764980    0.3926199118    0.1073754035         -0.0042
H1196      H    0.8296077770    0.3362545688    0.0554813810         -0.0042
H1197      H    0.8020572573    0.3391783181    0.0531752228         -0.0042
H1198      H    0.8037600038    0.3749146543    0.0859844313         -0.0042
H1199      H    0.8311671431    0.3718858392    0.0887483830         -0.0042
C1200      C    0.7734010033    0.3266336152    0.0915922503         -0.0042
C1201      C    0.7584262434    0.3307629854    0.0885277457         -0.0042
C1202      C    0.7518091190    0.3278138685    0.0736300745         -0.0042
C1203      C    0.7601248567    0.3208720396    0.0614486658         -0.0042
C1204      C    0.7752570156    0.3168713074    0.0641253681         -0.0042
C1205      C    0.7820865235    0.3193929814    0.0788385063         -0.0042
H1206      H    0.7518384005    0.3361763253    0.0976691978         -0.0042
H1207      H    0.7401651996    0.3310566901    0.0715904785         -0.0042
H1208      H    0.7817831818    0.3116164794    0.0548100245         -0.0042
H1209      H    0.7937920492    0.3162869787    0.0807344533         -0.0042
C1210      C    0.6002421808    0.1657334673    0.9261345228         -0.0042
C1211      C    0.6052083790    0.1784468491    0.9185377157         -0.0042
C1212      C    0.6206003781    0.1802989040    0.9149000967         -0.0042
C1213      C    0.6311012448    0.1695788951    0.9189873295         -0.0042
C1214      C    0.6467143388    0.1710994247    0.9159085346         -0.0042
C1215      C    0.6569713188    0.1602663323    0.9205556842         -0.0042
C1216      C    0.6517537199    0.1478609928    0.9284901294         -0.0042
C1217      C    0.6615810862    0.1368198623    0.9335493433         -0.0042
C1218      C    0.6557797451    0.1247171865    0.9416297513         -0.0042
C1219      C    0.6401627828    0.1238683168    0.9447506415         -0.0042
C1220      C    0.6361829885    0.1463852181    0.9316124365         -0.0042
C1221      C    0.6257795821    0.1570796806    0.9266328010         -0.0042
C1222      C    0.5355439451    0.1603714241    0.9322461963         -0.0042
C1223      C    0.6334090250    0.1115219416    0.9529798554         -0.0042
C1224      C    0.6295071495    0.1126906843    0.9691615630         -0.0042
C1225      C    0.6205518641    0.1021069441    0.9763630754         -0.0042
C1226      C    0.6151702506    0.0903806956    0.9673740508         -0.0042
C1227      C    0.6197179792    0.0889024444    0.9513243728         -0.0042
C1228      C    0.6288181543    0.0994243283    0.9441860419         -0.0042
C1229      C    0.6033050697    0.0810873315    0.9742881281         -0.0042
C1230      C    0.6028052440    0.1474299507    0.9745128026         -0.0042
C1231      C    0.5951651599    0.1445941979    0.9889363826         -0.0042
C1232      C    0.5863477851    0.1320700833    0.9904288627         -0.0042
C1233      C    0.5845825662    0.1227993793    0.9772917304         -0.0042
C1234      C    0.5748184073    0.1108286512    0.9777254353         -0.0042
C1235      C    0.5724954227    0.1024564576    0.9639376535         -0.0042
C1236      C    0.5800621759    0.1058349629    0.9496109045         -0.0042
C1237      C    0.5775872437    0.0980851999    0.9354491018         -0.0042
C1238      C    0.5848048605    0.1023079676    0.9212537468         -0.0042
C1239      C    0.5947906295    0.1141380985    0.9213218938         -0.0042
C1240      C    0.5901878625    0.1175354207    0.9492411412         -0.0042
C1241      C    0.5924540489    0.1259986886    0.9631156877         -0.0042
C1242      C    0.6271161767    0.2038652514    0.9609562312         -0.0042
C1243      C    0.6184084932    0.1412490830    0.8647169410         -0.0042
Cu1244    Cu    0.6096713245    0.1374396367    0.9412440697             1.0
N1245      N    0.6106475738    0.1553741944    0.9297054487         -0.0042
N1246      N    0.6310090999    0.1346945660    0.9397097736         -0.0042
N1247      N    0.6017314320    0.1377207861    0.9624183993         -0.0042
N1248      N    0.5973607771    0.1211760742    0.9353502439         -0.0042
N1249      N    0.5284203166    0.1492099923    0.9265940068         -0.0042
N1250      N    0.5952510511    0.0727411160    0.9651203822         -0.0042
N1251      N    0.6415458554    0.2063947996    0.9594341005         -0.0042
N1252      N    0.6093438070    0.1477250985    0.8547732700         -0.0042
C1253      C    0.6010366595    0.1198569594    0.9062884886         -0.0042
C1254      C    0.5912330993    0.1234306797    0.8936627913         -0.0042
C1255      C    0.5968272925    0.1302293396    0.8799811554         -0.0042
C1256      C    0.6123669012    0.1334050992    0.8786548479         -0.0042
C1257      C    0.6222205859    0.1293888640    0.8910776694         -0.0042
C1258      C    0.6165720824    0.1226814359    0.9048123419         -0.0042
C1259      C    0.5522840281    0.1608607241    0.9324822063         -0.0042
C1260      C    0.5596028918    0.1734445525    0.9377188632         -0.0042
C1261      C    0.5753334978    0.1748217341    0.9363194592         -0.0042
C1262      C    0.5840051986    0.1636037940    0.9297042953         -0.0042
C1263      C    0.5767903101    0.1507836424    0.9251779479         -0.0042
C1264      C    0.5610621614    0.1493691401    0.9265579606         -0.0042
H1265      H    0.5972131273    0.1868098835    0.9152643802         -0.0042
H1266      H    0.6242796866    0.1901000549    0.9089992759         -0.0042
H1267      H    0.6509915689    0.1806755604    0.9100026016         -0.0042
H1268      H    0.6689468921    0.1616494368    0.9180907061         -0.0042
H1269      H    0.6736547877    0.1375399526    0.9312785648         -0.0042
H1270      H    0.6633465291    0.1161847288    0.9454511368         -0.0042
H1271      H    0.5292981898    0.1696825385    0.9364720465         -0.0042
H1272      H    0.6327717365    0.1221363648    0.9759756052         -0.0042
H1273      H    0.6170357275    0.1035619384    0.9886823044         -0.0042
H1274      H    0.6156441142    0.0800201768    0.9440828303         -0.0042
H1275      H    0.6316011668    0.0985168669    0.9315990728         -0.0042
H1276      H    0.5998210960    0.0832593320    0.9864653577         -0.0042
H1277      H    0.5957031145    0.1521931329    0.9987693560         -0.0042
H1278      H    0.5803942778    0.1300077793    0.0015333654         -0.0042
H1279      H    0.5687133721    0.1081619466    0.9885820131         -0.0042
H1280      H    0.5646135121    0.0935082984    0.9644199194         -0.0042
H1281      H    0.5697980692    0.0890523087    0.9352525115         -0.0042
H1282      H    0.5824640503    0.0965228711    0.9102689278         -0.0042
H1283      H    0.6189916992    0.2125924445    0.9601114225         -0.0042
H1284      H    0.6305912640    0.1424740842    0.8636220726         -0.0042
H1285      H    0.5791568423    0.1214295864    0.8946500640         -0.0042
H1286      H    0.5889773965    0.1331720250    0.8705611261         -0.0042
H1287      H    0.6342468184    0.1316967927    0.8902994546         -0.0042
H1288      H    0.6243144395    0.1196799115    0.9142512691         -0.0042
H1289      H    0.5530923759    0.1824078541    0.9424087185         -0.0042
H1290      H    0.5806953035    0.1847890699    0.9400320351         -0.0042
H1291      H    0.5832105626    0.1422058267    0.9197185872         -0.0042
H1292      H    0.5557583920    0.1395151338    0.9224159911         -0.0042
C1293      C    0.6095909560    0.1616279210    0.9715579707         -0.0042
C1294      C    0.6247416064    0.1632224984    0.9669365183         -0.0042
C1295      C    0.6305379503    0.1769387598    0.9634105412         -0.0042
C1296      C    0.6212241080    0.1892803471    0.9642146868         -0.0042
C1297      C    0.6059132885    0.1879275562    0.9685233768         -0.0042
C1298      C    0.5998626554    0.1745383926    0.9723741363         -0.0042
H1299      H    0.6320942566    0.1538919211    0.9661518258         -0.0042
H1300      H    0.6423339146    0.1778891963    0.9599423700         -0.0042
H1301      H    0.5986290363    0.1973298031    0.9690759711         -0.0042
H1302      H    0.5880115776    0.1736369098    0.9756384266         -0.0042
C1303      C    0.6002368737    0.8328953809    0.0880035691         -0.0042
C1304      C    0.6052020693    0.8201809526    0.0955988686         -0.0042
C1305      C    0.6205937477    0.8183276532    0.0992364571         -0.0042
C1306      C    0.6310952999    0.8290474727    0.0951506848         -0.0042
C1307      C    0.6467081243    0.8275257420    0.0982294931         -0.0042
C1308      C    0.6569658327    0.8383587152    0.0935838148         -0.0042
C1309      C    0.6517492482    0.8507651495    0.0856508358         -0.0042
C1310      C    0.6615773791    0.8618062266    0.0805931134         -0.0042
C1311      C    0.6557770509    0.8739100452    0.0725141266         -0.0042
C1312      C    0.6401603359    0.8747601204    0.0693931400         -0.0042
C1313      C    0.6361787877    0.8522421271    0.0825285104         -0.0042
C1314      C    0.6257746352    0.8415477588    0.0875066898         -0.0042
C1315      C    0.5355392616    0.8382617333    0.0818917242         -0.0042
C1316      C    0.6334076105    0.8871077077    0.0611653652         -0.0042
C1317      C    0.6295068071    0.8859408129    0.0449834630         -0.0042
C1318      C    0.6205524170    0.8965257878    0.0377831433         -0.0042
C1319      C    0.6151706250    0.9082514409    0.0467735479         -0.0042
C1320      C    0.6197173023    0.9097278205    0.0628234672         -0.0042
C1321      C    0.6288165889    0.8992047000    0.0699606148         -0.0042
C1322      C    0.6033062708    0.9175461770    0.0398604665         -0.0042
C1323      C    0.6028039628    0.8512036095    0.0396275850         -0.0042
C1324      C    0.5951649803    0.8540412472    0.0252042572         -0.0042
C1325      C    0.5863481800    0.8665660152    0.0237132114         -0.0042
C1326      C    0.5845824041    0.8758355006    0.0368514668         -0.0042
C1327      C    0.5748187258    0.8878068299    0.0364191157         -0.0042
C1328      C    0.5724951055    0.8961777715    0.0502079024         -0.0042
C1329      C    0.5800607433    0.8927973952    0.0645343312         -0.0042
C1330      C    0.5775851261    0.9005458773    0.0786970599         -0.0042
C1331      C    0.5848016049    0.8963212717    0.0928919858         -0.0042
C1332      C    0.5947869332    0.8844905773    0.0928225053         -0.0042
C1333      C    0.5901859638    0.8810963219    0.0649027788         -0.0042
C1334      C    0.5924527885    0.8726343180    0.0510272155         -0.0042
C1335      C    0.6271118355    0.7947655590    0.0531774940         -0.0042
C1336      C    0.6183998719    0.8573725593    0.1494244111         -0.0042
Cu1337    Cu    0.6096681248    0.8611901900    0.0728976411             1.0
N1338      N    0.6106429030    0.8432544179    0.0844340577         -0.0042
N1339      N    0.6310058977    0.8639338879    0.0744325517         -0.0042
N1340      N    0.6017296822    0.8609116207    0.0517231745         -0.0042
N1341      N    0.5973577833    0.8774538637    0.0787933185         -0.0042
N1342      N    0.5284156635    0.8494230044    0.0875452014         -0.0042
N1343      N    0.5952519342    0.9258919318    0.0490291402         -0.0042
N1344      N    0.6415413140    0.7922350338    0.0546994980         -0.0042
N1345      N    0.6093342561    0.8508960630    0.1593671647         -0.0042
C1346      C    0.6010317109    0.8787698500    0.1078552840         -0.0042
C1347      C    0.5912271454    0.8751954217    0.1204804131         -0.0042
C1348      C    0.5968201390    0.8683950683    0.1341612807         -0.0042
C1349      C    0.6123595366    0.8652182879    0.1354873960         -0.0042
C1350      C    0.6222142293    0.8692352078    0.1230651981         -0.0042
C1351      C    0.6165669256    0.8759443378    0.1093312819         -0.0042
C1352      C    0.5522793423    0.8377715009    0.0816558696         -0.0042
C1353      C    0.5595980934    0.8251877805    0.0764177516         -0.0042
C1354      C    0.5753285511    0.8238095597    0.0778171881         -0.0042
C1355      C    0.5840002179    0.8350263401    0.0844338504         -0.0042
C1356      C    0.5767854999    0.8478464492    0.0889616894         -0.0042
C1357      C    0.5610574997    0.8492619885    0.0875816488         -0.0042
H1358      H    0.5972062770    0.8118180462    0.0988710672         -0.0042
H1359      H    0.6242722802    0.8085256996    0.1051361138         -0.0042
H1360      H    0.6509845865    0.8179487689    0.1041342974         -0.0042
H1361      H    0.6689411839    0.8369746791    0.0960487763         -0.0042
H1362      H    0.6736508969    0.8610852186    0.0828639585         -0.0042
H1363      H    0.6633444198    0.8824424544    0.0686938933         -0.0042
H1364      H    0.5292934472    0.8289514003    0.0776646425         -0.0042
H1365      H    0.6327715085    0.8764956303    0.0381682953         -0.0042
H1366      H    0.6170370753    0.8950722316    0.0254636893         -0.0042
H1367      H    0.6156432722    0.9186095935    0.0700660551         -0.0042
H1368      H    0.6315987674    0.9001107383    0.0825477319         -0.0042
H1369      H    0.5998230553    0.9153755985    0.0276829235         -0.0042
H1370      H    0.5957033269    0.8464432690    0.0153703515         -0.0042
H1371      H    0.5803955162    0.8686297745    0.0126088870         -0.0042
H1372      H    0.5687145398    0.8904749736    0.0255627889         -0.0042
H1373      H    0.5646135650    0.9051264293    0.0497266409         -0.0042
H1374      H    0.5697962783    0.9095791936    0.0788946662         -0.0042
H1375      H    0.5824602549    0.9021053987    0.1038774896         -0.0042
H1376      H    0.6189869712    0.7860387453    0.0540211191         -0.0042
H1377      H    0.6305825211    0.8561467522    0.1505192851         -0.0042
H1378      H    0.5791510319    0.8771973039    0.1194932321         -0.0042
H1379      H    0.5889694825    0.8654518853    0.1435808450         -0.0042
H1380      H    0.6342403213    0.8669265140    0.1238432826         -0.0042
H1381      H    0.6243100467    0.8789463679    0.0998928256         -0.0042
H1382      H    0.5530875635    0.8162253218    0.0717267044         -0.0042
H1383      H    0.5806902375    0.8138422906    0.0741034494         -0.0042
H1384      H    0.5832056989    0.8564233498    0.0944221932         -0.0042
H1385      H    0.5557538157    0.8591158817    0.0917247679         -0.0042
C1386      C    0.6095889364    0.8370049549    0.0425807494         -0.0042
C1387      C    0.6247392080    0.8354090480    0.0472022000         -0.0042
C1388      C    0.6305347923    0.8216921015    0.0507265564         -0.0042
C1389      C    0.6212205408    0.8093511271    0.0499207652         -0.0042
C1390      C    0.6059100694    0.8107052252    0.0456120451         -0.0042
C1391      C    0.5998602060    0.8240951210    0.0417628626         -0.0042
H1392      H    0.6320921553    0.8447391264    0.0479881407         -0.0042
H1393      H    0.6423304815    0.8207406429    0.0541947622         -0.0042
H1394      H    0.5986255013    0.8013034500    0.0450581946         -0.0042
H1395      H    0.5880093873    0.8249976086    0.0384985309         -0.0042
C1396      C    0.7847134087    0.6382597371    0.9477384482         -0.0042
C1397      C    0.7792041791    0.6375616130    0.9635409589         -0.0042
C1398      C    0.7639199383    0.6343176878    0.9664008691         -0.0042
C1399      C    0.7540530966    0.6319326726    0.9535360201         -0.0042
C1400      C    0.7385449645    0.6289689554    0.9558047143         -0.0042
C1401      C    0.7289010072    0.6269993855    0.9425824845         -0.0042
C1402      C    0.7346204723    0.6281264244    0.9269396485         -0.0042
C1403      C    0.7253989987    0.6264250905    0.9133415630         -0.0042
C1404      C    0.7316698738    0.6278505063    0.8979542458         -0.0042
C1405      C    0.7471295763    0.6311525031    0.8963286536         -0.0042
C1406      C    0.7500808555    0.6311420165    0.9246934664         -0.0042
C1407      C    0.7598979184    0.6327938327    0.9379369240         -0.0042
C1408      C    0.8492446525    0.6456470313    0.9422998493         -0.0042
C1409      C    0.7543597176    0.6326591076    0.8806719513         -0.0042
C1410      C    0.7573358670    0.6464361516    0.8745894172         -0.0042
C1411      C    0.7666794930    0.6480864260    0.8612299107         -0.0042
C1412      C    0.7733723628    0.6359894607    0.8539962312         -0.0042
C1413      C    0.7697693108    0.6221286925    0.8596869385         -0.0042
C1414      C    0.7602827738    0.6204899294    0.8729506788         -0.0042
C1415      C    0.7855326390    0.6382158223    0.8421589821         -0.0042
C1416      C    0.7810663745    0.6684902045    0.9074828740         -0.0042
C1417      C    0.7881542827    0.6793305302    0.8984082839         -0.0042
C1418      C    0.7977957641    0.6755221797    0.8857388316         -0.0042
C1419      C    0.8009142344    0.6609425892    0.8826738697         -0.0042
C1420      C    0.8115112848    0.6566096699    0.8710724254         -0.0042
C1421      C    0.8151513259    0.6419588842    0.8692133597         -0.0042
C1422      C    0.8080910148    0.6314475305    0.8787817881         -0.0042
C1423      C    0.8118549576    0.6167909687    0.8777134721         -0.0042
C1424      C    0.8050726894    0.6067938437    0.8880684556         -0.0042
C1425      C    0.7942398788    0.6114478360    0.8992929287         -0.0042
C1426      C    0.7971507940    0.6356816554    0.8900728057         -0.0042
C1427      C    0.7935561141    0.6504474655    0.8919843321         -0.0042
C1428      C    0.7533282265    0.6813579311    0.9683239007         -0.0042
C1429      C    0.7715706667    0.5766305624    0.9509222467         -0.0042
Cu1430    Cu    0.7766653817    0.6368158430    0.9125550782             1.0
N1431      N    0.7749409919    0.6356322121    0.9354690592         -0.0042
N1432      N    0.7556951452    0.6327198821    0.9096790144         -0.0042
N1433      N    0.7834758771    0.6544938490    0.9034809622         -0.0042
N1434      N    0.7904410226    0.6256678695    0.8997165982         -0.0042
N1435      N    0.8574607540    0.6366090988    0.9341693843         -0.0042
N1436      N    0.7946440813    0.6277105893    0.8384483527         -0.0042
N1437      N    0.7388443199    0.6801872655    0.9709243697         -0.0042
N1438      N    0.7806217091    0.5722964931    0.9622204194         -0.0042
C1439      C    0.7883562821    0.6015317735    0.9115454747         -0.0042
C1440      C    0.7984963444    0.5937925947    0.9212379908         -0.0042
C1441      C    0.7931126389    0.5854972025    0.9339640228         -0.0042
C1442      C    0.7774650004    0.5846915281    0.9370668053         -0.0042
C1443      C    0.7673183656    0.5920640445    0.9270286766         -0.0042
C1444      C    0.7727466581    0.6004473499    0.9143705707         -0.0042
C1445      C    0.8325223903    0.6447832181    0.9419912199         -0.0042
C1446      C    0.8240267753    0.6541181465    0.9517059080         -0.0042
C1447      C    0.8083268836    0.6524245860    0.9530611062         -0.0042
C1448      C    0.8008634592    0.6413879147    0.9446703246         -0.0042
C1449      C    0.8092370267    0.6325064780    0.9343938391         -0.0042
C1450      C    0.8249382431    0.6341674242    0.9330106074         -0.0042
H1451      H    0.7867098974    0.6393394322    0.9736079470         -0.0042
H1452      H    0.7598236459    0.6337554725    0.9786098175         -0.0042
H1453      H    0.7338701786    0.6282551877    0.9677697577         -0.0042
H1454      H    0.7169950181    0.6247415701    0.9445836691         -0.0042
H1455      H    0.7134348894    0.6240148476    0.9145963504         -0.0042
H1456      H    0.7245756987    0.6264671620    0.8874872879         -0.0042
H1457      H    0.8545556192    0.6537229250    0.9498034812         -0.0042
H1458      H    0.7530325047    0.6559203919    0.8806549480         -0.0042
H1459      H    0.7694465106    0.6588725811    0.8571787541         -0.0042
H1460      H    0.7748584258    0.6126191783    0.8544052359         -0.0042
H1461      H    0.7582187168    0.6097933674    0.8776938995         -0.0042
H1462      H    0.7882213166    0.6492107240    0.8388782829         -0.0042
H1463      H    0.7865510664    0.6906017770    0.9013849528         -0.0042
H1464      H    0.8033148503    0.6839282060    0.8788745503         -0.0042
H1465      H    0.8172390284    0.6645549892    0.8637317450         -0.0042
H1466      H    0.8236454747    0.6388909137    0.8604928129         -0.0042
H1467      H    0.8202975904    0.6131342501    0.8692157993         -0.0042
H1468      H    0.8083947904    0.5955597600    0.8874799191         -0.0042
H1469      H    0.7608119566    0.6852541629    0.9776454974         -0.0042
H1470      H    0.7594004197    0.5753818680    0.9521330501         -0.0042
H1471      H    0.8106239098    0.5945954614    0.9193068679         -0.0042
H1472      H    0.8011908475    0.5798889595    0.9414898921         -0.0042
H1473      H    0.7552070874    0.5915713106    0.9291688190         -0.0042
H1474      H    0.7647789935    0.6060522469    0.9067824464         -0.0042
H1475      H    0.8296038190    0.6624279707    0.9586654208         -0.0042
H1476      H    0.8020534143    0.6595033486    0.9609725134         -0.0042
H1477      H    0.8037602483    0.6237623210    0.9281696700         -0.0042
H1478      H    0.8311672849    0.6267919361    0.9254047672         -0.0042
C1479      C    0.7733979206    0.6720412137    0.9225536714         -0.0042
C1480      C    0.7584233316    0.6679116322    0.9256191381         -0.0042
C1481      C    0.7518053341    0.6708626233    0.9405163807         -0.0042
C1482      C    0.7601200224    0.6778065864    0.9526964237         -0.0042
C1483      C    0.7752520028    0.6818075931    0.9500187799         -0.0042
C1484      C    0.7820823441    0.6792840811    0.9353059908         -0.0042
H1485      H    0.7518362913    0.6624966754    0.9164787525         -0.0042
H1486      H    0.7401615650    0.6676195875    0.9425567305         -0.0042
H1487      H    0.7817773706    0.6870640606    0.9593330863         -0.0042
H1488      H    0.7937877232    0.6823903215    0.9334093135         -0.0042
C3783      C    0.6423415036    0.7498167732    0.0537544466         -0.0042
C3784      C    0.6541766383    0.7532360756    0.0430481070         -0.0042
C3785      C    0.6624861426    0.7418490360    0.0357257012         -0.0042
C3786      C    0.6587699789    0.7272961882    0.0392537917         -0.0042
C3787      C    0.6468253494    0.7244222951    0.0500466428         -0.0042
C3788      C    0.6387679773    0.7355769045    0.0571486340         -0.0042
C3789      C    0.6676457952    0.7154783247    0.0314459900         -0.0042
C3790      C    0.6795607751    0.7191831374    0.0208410357         -0.0042
C3791      C    0.6829253969    0.7338256258    0.0176202916         -0.0042
C3792      C    0.6744478047    0.7450602070    0.0249806738         -0.0042
C3793      C    0.6578048173    0.7677761618    0.0396112190         -0.0042
C3794      C    0.6696872799    0.7709963296    0.0288372846         -0.0042
C3795      C    0.6779941130    0.7596467788    0.0215668079         -0.0042
C3796      C    0.6948976397    0.7372597288    0.0069230403         -0.0042
C3797      C    0.6983365778    0.7518240942    0.0035773757         -0.0042
C3798      C    0.6899227749    0.7629737499    0.0108485640         -0.0042
C3799      C    0.7034803430    0.7261593765    0.9995531641         -0.0042
C3800      C    0.7001324622    0.7115938816    0.0027938322         -0.0042
C3801      C    0.6881686556    0.7081275052    0.0133986080         -0.0042
C3802      C    0.6848092869    0.6935087607    0.0165772074         -0.0042
C3803      C    0.6730214704    0.6899752192    0.0269836363         -0.0042
C3804      C    0.6645544186    0.7007546027    0.0343136802         -0.0042
C3805      C    0.6934758722    0.7775284799    0.0073973491         -0.0042
C3806      C    0.6851973241    0.7886007349    0.0145886598         -0.0042
C3807      C    0.6734912692    0.7854134039    0.0251553469         -0.0042
C3808      C    0.7052721930    0.7808744315    0.9968115540         -0.0042
C3809      C    0.7136882509    0.7698858520    0.9895795757         -0.0042
C3810      C    0.7102462032    0.7552996586    0.9929375069         -0.0042
C3811      C    0.7187721913    0.7442406427    0.9856453202         -0.0042
C3812      C    0.7154267122    0.7296352563    0.9889369610         -0.0042
C3813      C    0.7255175252    0.7732759120    0.9790145601         -0.0042
C3814      C    0.7339539877    0.7623315323    0.9718010727         -0.0042
C3815      C    0.7306838234    0.7478274694    0.9750437302         -0.0042
C3816      C    0.7087266210    0.7004392477    0.9954922043         -0.0042
C3817      C    0.7050596766    0.6859577431    0.9989319168         -0.0042
C3818      C    0.6932609592    0.6825731450    0.0093220504         -0.0042
C3819      C    0.7240855005    0.7185758914    0.9816005511         -0.0042
C3820      C    0.7207541221    0.7039459548    0.9849401316         -0.0042
C3821      C    0.7391594581    0.7368735737    0.9678498749         -0.0042
C3822      C    0.7359474033    0.7224537472    0.9710800883         -0.0042
C3823      C    0.6492168697    0.7796313812    0.0473655547         -0.0042
C3824      C    0.7299429734    0.6923286923    0.9775359770         -0.0042
C3825      C    0.6360056732    0.7850663525    0.0401945934         -0.0042
C3826      C    0.6279432749    0.7962491657    0.0475313844         -0.0042
C3827      C    0.6330306858    0.8020353159    0.0620269075         -0.0042
C3828      C    0.6461867351    0.7966416235    0.0692096694         -0.0042
C3829      C    0.6542852331    0.7854631853    0.0619063046         -0.0042
C3830      C    0.7427684117    0.6869523330    0.9855030992         -0.0042
C3831      C    0.7514500063    0.6760080084    0.9785175594         -0.0042
C3832      C    0.7473549481    0.6703869834    0.9635969602         -0.0042
C3833      C    0.7345705296    0.6757165538    0.9556251040         -0.0042
C3834      C    0.7258657749    0.6866743505    0.9625611069         -0.0042
H3835      H    0.6357045766    0.7580868593    0.0596242777         -0.0042
H3836      H    0.6434226744    0.7136579904    0.0532563400         -0.0042
H3837      H    0.6296503398    0.7331526171    0.0654055477         -0.0042
H3838      H    0.6703206798    0.6787917481    0.0294953289         -0.0042
H3839      H    0.6556355670    0.6971970069    0.0421695531         -0.0042
H3840      H    0.6877955543    0.7997982390    0.0120556537         -0.0042
H3841      H    0.6674524527    0.7944159809    0.0303916640         -0.0042
H3842      H    0.7079201911    0.7920631892    0.9942166821         -0.0042
H3843      H    0.7282667374    0.7844117190    0.9763459269         -0.0042
H3844      H    0.7430496655    0.7652104637    0.9636835584         -0.0042
H3845      H    0.7112510703    0.6770794808    0.9936325928         -0.0042
H3846      H    0.6907429740    0.6713274530    0.0116954366         -0.0042
H3847      H    0.7483323227    0.7394574946    0.9596975479         -0.0042
H3848      H    0.7428647031    0.7143856999    0.9652106080         -0.0042
H3849      H    0.6319929014    0.7806465196    0.0289705119         -0.0042
H3850      H    0.6177480342    0.8004258151    0.0419945327         -0.0042
H3852      H    0.6501142469    0.8011233293    0.0804275165         -0.0042
H3853      H    0.6644667953    0.7813460016    0.0675464196         -0.0042
H3854      H    0.7460104341    0.6912457726    0.9970694515         -0.0042
H3855      H    0.7613473996    0.6718765718    0.9846684232         -0.0042
H3857      H    0.7314145696    0.6713564334    0.9440767509         -0.0042
H3858      H    0.7159840557    0.6907546446    0.9563121102         -0.0042
C3709      C    0.6218659879    0.0530879669    0.9968320384         -0.0042
C3710      C    0.6104710067    0.0425800863    0.9947149243         -0.0042
C3711      C    0.6115209708    0.0293360107    0.0032540151         -0.0042
C3712      C    0.6239291501    0.0268955737    0.0137338768         -0.0042
C3713      C    0.6350475158    0.0377453275    0.0154535572         -0.0042
C3714      C    0.6339576746    0.0506363184    0.0070893760         -0.0042
C3715      C    0.6248377865    0.0128994108    0.0225930895         -0.0042
C3716      C    0.6133251285    0.0024671480    0.0201673412         -0.0042
C3717      C    0.6011240000    0.0052994916    0.0096159854         -0.0042
C3718      C    0.6002184021    0.0186258934    0.0012499662         -0.0042
C3719      C    0.5981479710    0.0451063431    0.9842347155         -0.0042
C3720      C    0.5868265119    0.0344604365    0.9822800958         -0.0042
C3721      C    0.5878910436    0.0212448473    0.9907626225         -0.0042
C3722      C    0.5897117352    0.9946854120    0.0074148734         -0.0042
C3723      C    0.5774606121    0.9973977852    0.9969571437         -0.0042
C3724      C    0.5765370127    0.0106171014    0.9886741015         -0.0042
C3725      C    0.5905125024    0.9813269851    0.0156357436         -0.0042
C3726      C    0.6026769034    0.9785175707    0.0261105693         -0.0042
C3727      C    0.6140405616    0.9890926227    0.0283852303         -0.0042
C3728      C    0.6261945514    0.9862577857    0.0389411323         -0.0042
C3729      C    0.6374359723    0.9966183537    0.0412939449         -0.0042
C3730      C    0.6368008033    0.0097350644    0.0332751643         -0.0042
C3731      C    0.5642018148    0.0132094187    0.9782286207         -0.0042
C3732      C    0.5632547229    0.0262671133    0.9699822389         -0.0042
C3733      C    0.5743827055    0.0367392652    0.9719464613         -0.0042
C3734      C    0.5529476834    0.0027261767    0.9761142668         -0.0042
C3735      C    0.5537960693    0.9895816669    0.9842548516         -0.0042
C3736      C    0.5660707149    0.9868649492    0.9947230096         -0.0042
C3737      C    0.5669083641    0.9735867815    0.0028961749         -0.0042
C3738      C    0.5791360722    0.9707682971    0.0133693893         -0.0042
C3739      C    0.5425253768    0.9790939207    0.9820796331         -0.0042
C3740      C    0.5433567694    0.9659549595    0.9901668280         -0.0042
C3741      C    0.5554747664    0.9631074430    0.0005568816         -0.0042
C3742      C    0.6035621266    0.9651397568    0.0343258469         -0.0042
C3743      C    0.6158535046    0.9626714662    0.0447804992         -0.0042
C3744      C    0.6269877837    0.9731017072    0.0470386877         -0.0042
C3745      C    0.5799271514    0.9573705585    0.0215029519         -0.0042
C3746      C    0.5922047742    0.9545392234    0.0319592583         -0.0042
C3747      C    0.5563227299    0.9499356020    0.0086202400         -0.0042
C3748      C    0.5683709590    0.9470732621    0.0189268750         -0.0042
C3749      C    0.5971452003    0.0588679673    0.9752368786         -0.0042
C3750      C    0.5932500902    0.9404472737    0.0402804862         -0.0042
C3751      C    0.5897111970    0.0708021261    0.9819603686         -0.0042
C3752      C    0.5887777547    0.0837555260    0.9734408534         -0.0042
C3753      C    0.5952509783    0.0848399554    0.9582071767         -0.0042
C3754      C    0.6026728835    0.0729717760    0.9514737155         -0.0042
C3755      C    0.6036244753    0.0599967177    0.9599526453         -0.0042
C3756      C    0.6012772166    0.9290163185    0.0332398649         -0.0042
C3757      C    0.6022517248    0.9157177782    0.0410727083         -0.0042
C3758      C    0.5952520070    0.9137930925    0.0559423456         -0.0042
C3759      C    0.5872472674    0.9251688768    0.0629998513         -0.0042
C3760      C    0.5862297717    0.9384827635    0.0551974752         -0.0042
H3761      H    0.6215760217    0.0633171250    0.9906059124         -0.0042
H3762      H    0.6447393598    0.0366033953    0.0231782761         -0.0042
H3763      H    0.6426072270    0.0588230929    0.0085608319         -0.0042
H3764      H    0.6468070251    0.9945745050    0.0493872887         -0.0042
H3765      H    0.6458641053    0.0171919352    0.0357158448         -0.0042
H3766      H    0.5538696206    0.0283983003    0.9619417408         -0.0042
H3767      H    0.5730867972    0.0466589115    0.9652557361         -0.0042
H3768      H    0.5435171125    0.0047999637    0.9680917056         -0.0042
H3769      H    0.5330636452    0.9810461424    0.9740890168         -0.0042
H3770      H    0.5345192111    0.9580085919    0.9882905169         -0.0042
H3771      H    0.6170063037    0.9526654553    0.0513411330         -0.0042
H3772      H    0.6362772024    0.9708516074    0.0551681241         -0.0042
H3773      H    0.5476417808    0.9417916938    0.0069430219         -0.0042
H3774      H    0.5685011062    0.9366969170    0.0248655618         -0.0042
H3775      H    0.5846675906    0.0700496333    0.9937479102         -0.0042
H3776      H    0.5830500272    0.0929571543    0.9786440957         -0.0042
H3778      H    0.6076808936    0.0738206325    0.9396864799         -0.0042
H3779      H    0.6093917959    0.0508522531    0.9546521518         -0.0042
H3780      H    0.6067375305    0.9304246061    0.0217266273         -0.0042
H3781      H    0.6084369081    0.9069045202    0.0356250519         -0.0042
H3783      H    0.5818342935    0.9236638093    0.0745090529         -0.0042
H3784      H    0.5800032123    0.9472417664    0.0607322799         -0.0042
C3635      C    0.7868344221    0.5305091530    0.9503975005         -0.0042
C3636      C    0.7846816785    0.5291492480    0.9670538037         -0.0042
C3637      C    0.7850546284    0.5151795632    0.9741025053         -0.0042
C3638      C    0.7875881481    0.5028802130    0.9643479803         -0.0042
C3639      C    0.7896847701    0.5047968978    0.9477351953         -0.0042
C3640      C    0.7893055190    0.5184498314    0.9409360393         -0.0042
C3641      C    0.7879274252    0.4882864430    0.9719799908         -0.0042
C3642      C    0.7856102553    0.4871852398    0.9887087499         -0.0042
C3643      C    0.7831196714    0.4997045654    0.9980387226         -0.0042
C3644      C    0.7828658034    0.5135823650    0.9908020863         -0.0042
C3645      C    0.7821548518    0.5414719958    0.9766802354         -0.0042
C3646      C    0.7800404525    0.5399026168    0.9933515508         -0.0042
C3647      C    0.7803764701    0.5259750412    0.0003731563         -0.0042
C3648      C    0.7808599949    0.4983205694    0.0147835267         -0.0042
C3649      C    0.7784075110    0.5107306305    0.0242273066         -0.0042
C3650      C    0.7781773544    0.5244997958    0.0170694668         -0.0042
C3651      C    0.7810245616    0.4845386220    0.0221400752         -0.0042
C3652      C    0.7834790313    0.4720895849    0.0128318565         -0.0042
C3653      C    0.7857967956    0.4734301517    0.9961489947         -0.0042
C3654      C    0.7883072321    0.4609269903    0.9868607422         -0.0042
C3655      C    0.7906353572    0.4621313035    0.9704153353         -0.0042
C3656      C    0.7904597384    0.4755722372    0.9630588665         -0.0042
C3657      C    0.7757117826    0.5368561838    0.0266616350         -0.0042
C3658      C    0.7754466830    0.5505044986    0.0196253451         -0.0042
C3659      C    0.7775622904    0.5520310503    0.0032308756         -0.0042
C3660      C    0.7735202132    0.5354516911    0.0431811739         -0.0042
C3661      C    0.7737000501    0.5218386426    0.0503647467         -0.0042
C3662      C    0.7761500706    0.5094102229    0.0409029095         -0.0042
C3663      C    0.7762995732    0.4956923688    0.0481794024         -0.0042
C3664      C    0.7787253431    0.4832107179    0.0388228361         -0.0042
C3665      C    0.7714649111    0.5204688153    0.0669053467         -0.0042
C3666      C    0.7716116913    0.5068938390    0.0741034073         -0.0042
C3667      C    0.7739998514    0.4944809414    0.0648649728         -0.0042
C3668      C    0.7835993528    0.4582607968    0.0201288106         -0.0042
C3669      C    0.7861437963    0.4460048219    0.0104939601         -0.0042
C3670      C    0.7884685584    0.4473512271    0.9941018380         -0.0042
C3671      C    0.7788075143    0.4694496204    0.0462186318         -0.0042
C3672      C    0.7811958576    0.4569461796    0.0368286259         -0.0042
C3673      C    0.7741071283    0.4808880214    0.0720714970         -0.0042
C3674      C    0.7764490849    0.4685367806    0.0629078398         -0.0042
C3675      C    0.7816368016    0.5560128816    0.9692886017         -0.0042
C3676      C    0.7810204388    0.4424986339    0.0444400530         -0.0042
C3677      C    0.7949889386    0.5641065069    0.9675593257         -0.0042
C3678      C    0.7944582026    0.5778142183    0.9605961266         -0.0042
C3679      C    0.7806219052    0.5834806516    0.9553431674         -0.0042
C3680      C    0.7672959545    0.5754431323    0.9570410920         -0.0042
C3681      C    0.7677785084    0.5617330558    0.9640052868         -0.0042
C3682      C    0.7674260897    0.4346609414    0.0453583099         -0.0042
C3683      C    0.7672493917    0.4210419755    0.0525527416         -0.0042
C3684      C    0.7806189551    0.4152002554    0.0588204827         -0.0042
C3685      C    0.7941935701    0.4229814656    0.0579173635         -0.0042
C3686      C    0.7944168732    0.4366141499    0.0507479452         -0.0042
H3687      H    0.7866430630    0.5408893758    0.9444826394         -0.0042
H3688      H    0.7916446808    0.4959541875    0.9396553104         -0.0042
H3689      H    0.7909276586    0.5196969649    0.9281663849         -0.0042
H3690      H    0.7925988030    0.4526126962    0.9631656884         -0.0042
H3691      H    0.7923615312    0.4756454942    0.9503400360         -0.0042
H3692      H    0.7735689015    0.5600632149    0.0268274997         -0.0042
H3693      H    0.7772400197    0.5628612592    0.9984075576         -0.0042
H3694      H    0.7716475826    0.5449809094    0.0504580065         -0.0042
H3695      H    0.7695744026    0.5299107087    0.0742848854         -0.0042
H3696      H    0.7698494852    0.5060986961    0.0869062577         -0.0042
H3697      H    0.7863783759    0.4352414687    0.0155039258         -0.0042
H3698      H    0.7903981142    0.4377059179    0.9870522893         -0.0042
H3699      H    0.7723546130    0.4797879544    0.0848539585         -0.0042
H3700      H    0.7764084676    0.4582676421    0.0690729985         -0.0042
H3701      H    0.8057468091    0.5597970561    0.9715981287         -0.0042
H3702      H    0.8047666584    0.5840432073    0.9592580015         -0.0042
H3704      H    0.7565945952    0.5798347043    0.9529709004         -0.0042
H3705      H    0.7574048463    0.5555759288    0.9652790955         -0.0042
H3706      H    0.7570226619    0.4391096687    0.0405231722         -0.0042
H3707      H    0.7567543851    0.4150104738    0.0532651722         -0.0042
H3709      H    0.8045330425    0.4184471787    0.0627743317         -0.0042
H3710      H    0.8049711337    0.4425816729    0.0501001503         -0.0042
C3561      C    0.6840782881    0.2188737385    0.9557909723         -0.0042
C3562      C    0.6786059180    0.2282992883    0.9677158212         -0.0042
C3563      C    0.6886997165    0.2385108335    0.9746667285         -0.0042
C3564      C    0.7040357908    0.2390852358    0.9695307872         -0.0042
C3565      C    0.7089743742    0.2294258679    0.9575547716         -0.0042
C3566      C    0.6990734430    0.2194917927    0.9508266911         -0.0042
C3567      C    0.7144734824    0.2498867675    0.9769924336         -0.0042
C3568      C    0.7087460314    0.2591545638    0.9890384275         -0.0042
C3569      C    0.6933771271    0.2582572267    0.9938392634         -0.0042
C3570      C    0.6834353697    0.2480385540    0.9866993967         -0.0042
C3571      C    0.6633008635    0.2276413482    0.9727653224         -0.0042
C3572      C    0.6580143254    0.2371840228    0.9847137797         -0.0042
C3573      C    0.6680839828    0.2473402979    0.9916697893         -0.0042
C3574      C    0.6879017067    0.2676839243    0.0059099113         -0.0042
C3575      C    0.6725834059    0.2669227039    0.0107708136         -0.0042
C3576      C    0.6627078676    0.2568101899    0.0036820297         -0.0042
C3577      C    0.6977130103    0.2778841495    0.0131730892         -0.0042
C3578      C    0.7130108270    0.2787448869    0.0083993359         -0.0042
C3579      C    0.7184947631    0.2694075550    0.9963270473         -0.0042
C3580      C    0.7338289238    0.2703352628    0.9915309446         -0.0042
C3581      C    0.7393399243    0.2612040463    0.9796206746         -0.0042
C3582      C    0.7298492188    0.2511367306    0.9724420840         -0.0042
C3583      C    0.6473790918    0.2561534792    0.0086533411         -0.0042
C3584      C    0.6375695901    0.2461438242    0.0016919679         -0.0042
C3585      C    0.6427801551    0.2367876981    0.9899157012         -0.0042
C3586      C    0.6420099345    0.2654913848    0.0205391774         -0.0042
C3587      C    0.6517338395    0.2755263492    0.0276501202         -0.0042
C3588      C    0.6670771654    0.2762826496    0.0227846310         -0.0042
C3589      C    0.6768635752    0.2863992028    0.0299987066         -0.0042
C3590      C    0.6922152682    0.2872270881    0.0252272315         -0.0042
C3591      C    0.6463280534    0.2848374294    0.0395766538         -0.0042
C3592      C    0.6560137658    0.2948463249    0.0467149882         -0.0042
C3593      C    0.6712555996    0.2956959689    0.0420291611         -0.0042
C3594      C    0.7228957100    0.2889021458    0.0156741008         -0.0042
C3595      C    0.7381398540    0.2895379848    0.0105903314         -0.0042
C3596      C    0.7434957892    0.2803791520    0.9986829130         -0.0042
C3597      C    0.7019994256    0.2973944940    0.0325769177         -0.0042
C3598      C    0.7173895459    0.2981890688    0.0278213352         -0.0042
C3599      C    0.6809588065    0.3056942492    0.0492090286         -0.0042
C3600      C    0.6961165092    0.3065371644    0.0445918643         -0.0042
C3601      C    0.6528311715    0.2169030848    0.9656048676         -0.0042
C3602      C    0.7277540063    0.3086174649    0.0356626831         -0.0042
C3603      C    0.6445437153    0.2203502192    0.9517870100         -0.0042
C3604      C    0.6346764074    0.2102054583    0.9450746612         -0.0042
C3605      C    0.6330505044    0.1966078278    0.9521189459         -0.0042
C3606      C    0.6412957305    0.1931340149    0.9658842704         -0.0042
C3607      C    0.6511699972    0.2032521815    0.9726374434         -0.0042
C3608      C    0.7361673682    0.3044310111    0.0491439659         -0.0042
C3609      C    0.7459304528    0.3142665744    0.0565564988         -0.0042
C3610      C    0.7473454825    0.3282800478    0.0505357666         -0.0042
C3611      C    0.7389808039    0.3324872464    0.0370921943         -0.0042
C3612      C    0.7291893996    0.3226885329    0.0296530062         -0.0042
H3613      H    0.6768525714    0.2109242958    0.9501548685         -0.0042
H3614      H    0.7204323847    0.2292710550    0.9531173115         -0.0042
H3615      H    0.7030802783    0.2121655392    0.9416624917         -0.0042
H3616      H    0.7510829470    0.2618322916    0.9758207689         -0.0042
H3617      H    0.7349044545    0.2444844499    0.9633371029         -0.0042
H3618      H    0.6257997134    0.2455203904    0.0053843116         -0.0042
H3619      H    0.6346897152    0.2292416329    0.9849334466         -0.0042
H3620      H    0.6302358582    0.2649284239    0.0242779615         -0.0042
H3621      H    0.6345946738    0.2843621480    0.0434102243         -0.0042
H3622      H    0.6515846203    0.3019262232    0.0559142839         -0.0042
H3623      H    0.7460988767    0.2971189710    0.0157404481         -0.0042
H3624      H    0.7552773155    0.2811610265    0.9950572942         -0.0042
H3625      H    0.6768228041    0.3128919917    0.0584557280         -0.0042
H3626      H    0.7031581691    0.3144578172    0.0505426080         -0.0042
H3627      H    0.6457367268    0.2308555707    0.9462618450         -0.0042
H3628      H    0.6282978045    0.2128729815    0.9344091950         -0.0042
H3630      H    0.6400328866    0.1826090610    0.9713261317         -0.0042
H3631      H    0.6575152065    0.2004780713    0.9833027241         -0.0042
H3632      H    0.7351394882    0.2935917198    0.0538752743         -0.0042
H3633      H    0.7524061221    0.3110288406    0.0669620334         -0.0042
H3635      H    0.7400865381    0.3433373810    0.0324454335         -0.0042
H3636      H    0.7227402428    0.3260263475    0.0192510082         -0.0042
C3487      C    0.6464696422    0.1383283040    0.8288982149         -0.0042
C3488      C    0.6355346969    0.1392440718    0.8166191563         -0.0042
C3489      C    0.6401280434    0.1370548003    0.8004742081         -0.0042
C3490      C    0.6555470303    0.1339826318    0.7969627762         -0.0042
C3491      C    0.6660676028    0.1331740196    0.8096681840         -0.0042
C3492      C    0.6615145047    0.1353223144    0.8253865931         -0.0042
C3493      C    0.6601545223    0.1317273113    0.7799148947         -0.0042
C3494      C    0.6489921631    0.1328203817    0.7677823631         -0.0042
C3495      C    0.6337242192    0.1358993582    0.7717589887         -0.0042
C3496      C    0.6293265585    0.1379779013    0.7879654932         -0.0042
C3497      C    0.6201910505    0.1423198249    0.8202345081         -0.0042
C3498      C    0.6093892485    0.1431771741    0.8077767205         -0.0042
C3499      C    0.6139735732    0.1410286419    0.7916797417         -0.0042
C3500      C    0.6227445219    0.1369084040    0.7593886507         -0.0042
C3501      C    0.6074699125    0.1399336067    0.7632051110         -0.0042
C3502      C    0.6030904473    0.1419740755    0.7792730258         -0.0042
C3503      C    0.6269918734    0.1349168774    0.7431720679         -0.0042
C3504      C    0.6421963975    0.1318778730    0.7392349821         -0.0042
C3505      C    0.6531607278    0.1308059411    0.7515361641         -0.0042
C3506      C    0.6683873239    0.1277074260    0.7475482007         -0.0042
C3507      C    0.6792756830    0.1265978949    0.7595825671         -0.0042
C3508      C    0.6752638189    0.1285650964    0.7755148297         -0.0042
C3509      C    0.5877469917    0.1449974530    0.7829463896         -0.0042
C3510      C    0.5833646275    0.1470514534    0.7988302568         -0.0042
C3511      C    0.5939979740    0.1461723527    0.8110718430         -0.0042
C3512      C    0.5769413224    0.1459533481    0.7707147780         -0.0042
C3513      C    0.5811955431    0.1439747721    0.7547532076         -0.0042
C3514      C    0.5964957807    0.1409510833    0.7509330024         -0.0042
C3515      C    0.6007564217    0.1389850044    0.7348199753         -0.0042
C3516      C    0.6160185441    0.1359726015    0.7308837952         -0.0042
C3517      C    0.5703516679    0.1449740864    0.7425310984         -0.0042
C3518      C    0.5745698443    0.1430297400    0.7265874761         -0.0042
C3519      C    0.5897007071    0.1400529085    0.7226264225         -0.0042
C3520      C    0.6465194876    0.1299268304    0.7230128885         -0.0042
C3521      C    0.6618227568    0.1268417488    0.7194606467         -0.0042
C3522      C    0.6725750056    0.1257467449    0.7315776513         -0.0042
C3523      C    0.6202249133    0.1340586641    0.7146484782         -0.0042
C3524      C    0.6355266589    0.1310813276    0.7107113436         -0.0042
C3525      C    0.5939259215    0.1381435214    0.7066574043         -0.0042
C3526      C    0.6089615819    0.1352121933    0.7026928246         -0.0042
C3527      C    0.6154513477    0.1447243816    0.8370589622         -0.0042
C3528      C    0.6400571724    0.1293279037    0.6937332725         -0.0042
C3529      C    0.6108632699    0.1330484690    0.8465865710         -0.0042
C3530      C    0.6063923980    0.1353549495    0.8624384575         -0.0042
C3531      C    0.6064862573    0.1492998347    0.8688244670         -0.0042
C3532      C    0.6110575668    0.1609585892    0.8593671798         -0.0042
C3533      C    0.6155302215    0.1586972851    0.8435066029         -0.0042
C3534      C    0.6450529711    0.1413061005    0.6849171427         -0.0042
C3535      C    0.6493098937    0.1396627938    0.6688985946         -0.0042
C3536      C    0.6486196266    0.1260810121    0.6616454775         -0.0042
C3537      C    0.6436523359    0.1141147968    0.6704023777         -0.0042
C3538      C    0.6393672226    0.1157140461    0.6864218466         -0.0042
H3539      H    0.6435393853    0.1399138517    0.8413479866         -0.0042
H3540      H    0.6779136564    0.1308972228    0.8078578765         -0.0042
H3541      H    0.6697571815    0.1346677672    0.8349665195         -0.0042
H3542      H    0.6909943781    0.1242001600    0.7566697543         -0.0042
H3543      H    0.6842752779    0.1275239938    0.7841230963         -0.0042
H3544      H    0.5716506826    0.1493752099    0.8018181674         -0.0042
H3545      H    0.5899788746    0.1478632585    0.8231654019         -0.0042
H3546      H    0.5651942359    0.1482648545    0.7736300919         -0.0042
H3547      H    0.5585917158    0.1472875402    0.7453046354         -0.0042
H3548      H    0.5659939988    0.1438605997    0.7173431280         -0.0042
H3549      H    0.6656638027    0.1252294684    0.7072895700         -0.0042
H3550      H    0.6842386460    0.1233563418    0.7284247643         -0.0042
H3551      H    0.5855749238    0.1389353571    0.6971746588         -0.0042
H3552      H    0.6116403246    0.1338422243    0.6901424472         -0.0042
H3553      H    0.6107563486    0.1222186462    0.8417309034         -0.0042
H3554      H    0.6028659378    0.1263387907    0.8697798875         -0.0042
H3556      H    0.6111292493    0.1717452856    0.8643185986         -0.0042
H3557      H    0.6190542515    0.1677860855    0.8362585670         -0.0042
H3558      H    0.6456269370    0.1518623148    0.6904531980         -0.0042
H3559      H    0.6531508758    0.1489118701    0.6621061352         -0.0042
H3561      H    0.6431229507    0.1036089456    0.6647730231         -0.0042
H3562      H    0.6355231084    0.1063987309    0.6931264915         -0.0042
C3413      C    0.8069606287    0.3293358720    0.3216789931         -0.0042
C3414      C    0.8119799247    0.3411764884    0.3124988398         -0.0042
C3415      C    0.8078095672    0.3420275234    0.2960737807         -0.0042
C3416      C    0.7987001340    0.3310321130    0.2891936452         -0.0042
C3417      C    0.7939543703    0.3193975452    0.2988752272         -0.0042
C3418      C    0.7980628685    0.3186310268    0.3148846508         -0.0042
C3419      C    0.7944468796    0.3321141769    0.2719039835         -0.0042
C3420      C    0.7997294645    0.3440443698    0.2628990192         -0.0042
C3421      C    0.8087927842    0.3547975085    0.2701881104         -0.0042
C3422      C    0.8127798112    0.3538083173    0.2866376153         -0.0042
C3423      C    0.8210646231    0.3520819260    0.3194595199         -0.0042
C3424      C    0.8259722305    0.3638754518    0.3100812341         -0.0042
C3425      C    0.8218455115    0.3647071639    0.2936992538         -0.0042
C3426      C    0.8139185045    0.3666627717    0.2609189638         -0.0042
C3427      C    0.8229301104    0.3774804674    0.2680626041         -0.0042
C3428      C    0.8268710959    0.3765237474    0.2843790570         -0.0042
C3429      C    0.8100747505    0.3677483572    0.2444862594         -0.0042
C3430      C    0.8010756836    0.3570240865    0.2372460090         -0.0042
C3431      C    0.7958942429    0.3452121681    0.2464607898         -0.0042
C3432      C    0.7868282054    0.3345039894    0.2391738486         -0.0042
C3433      C    0.7816364512    0.3228347300    0.2481558482         -0.0042
C3434      C    0.7853594605    0.3216284236    0.2642582454         -0.0042
C3435      C    0.8359059859    0.3874347395    0.2914025346         -0.0042
C3436      C    0.8398584375    0.3865198191    0.3075406293         -0.0042
C3437      C    0.8349931055    0.3749287375    0.3167562124         -0.0042
C3438      C    0.8409137082    0.3991397832    0.2822300045         -0.0042
C3439      C    0.8370835662    0.4001531078    0.2660394928         -0.0042
C3440      C    0.8280632466    0.3893141380    0.2588855517         -0.0042
C3441      C    0.8242403782    0.3903539227    0.2425458536         -0.0042
C3442      C    0.8152442794    0.3795708497    0.2352883484         -0.0042
C3443      C    0.8421484655    0.4118717166    0.2568800228         -0.0042
C3444      C    0.8383658951    0.4128982052    0.2407113812         -0.0042
C3445      C    0.8294556240    0.4022184144    0.2334584374         -0.0042
C3446      C    0.7972410504    0.3580318957    0.2207834280         -0.0042
C3447      C    0.7881642279    0.3471487734    0.2138950105         -0.0042
C3448      C    0.7830414935    0.3355688456    0.2229891643         -0.0042
C3449      C    0.8114913886    0.3806662913    0.2188376645         -0.0042
C3450      C    0.8025135064    0.3698368330    0.2115645409         -0.0042
C3451      C    0.8257036690    0.4032319354    0.2172589016         -0.0042
C3452      C    0.8168749013    0.3926161283    0.2100206289         -0.0042
C3453      C    0.8255109246    0.3511090910    0.3365476060         -0.0042
C3454      C    0.7987765805    0.3707779071    0.1942949082         -0.0042
C3455      C    0.8161849980    0.3570740205    0.3484399978         -0.0042
C3456      C    0.8204158457    0.3561463559    0.3645361425         -0.0042
C3457      C    0.8339465258    0.3492726642    0.3688102624         -0.0042
C3458      C    0.8432635489    0.3433113511    0.3569921403         -0.0042
C3459      C    0.8390755125    0.3442225962    0.3408811669         -0.0042
C3460      C    0.8082441769    0.3641835152    0.1829444184         -0.0042
C3461      C    0.8047360224    0.3650820477    0.1666537662         -0.0042
C3462      C    0.7917786933    0.3725312713    0.1616471712         -0.0042
C3463      C    0.7823105290    0.3791114191    0.1729317905         -0.0042
C3464      C    0.7857872656    0.3782530271    0.1892363278         -0.0042
H3465      H    0.8098357285    0.3282024498    0.3342034329         -0.0042
H3466      H    0.7870497212    0.3107042438    0.2944331593         -0.0042
H3467      H    0.7943187473    0.3096139271    0.3221120020         -0.0042
H3468      H    0.7746487718    0.3145606419    0.2427000718         -0.0042
H3469      H    0.7809237687    0.3123433910    0.2704062306         -0.0042
H3470      H    0.8467738928    0.3947996273    0.3130773788         -0.0042
H3471      H    0.8383946455    0.3747597301    0.3291993321         -0.0042
H3472      H    0.8478293306    0.4074696826    0.2877068453         -0.0042
H3473      H    0.8490689300    0.4202459726    0.2622232896         -0.0042
H3474      H    0.8424169374    0.4220487618    0.2338682545         -0.0042
H3475      H    0.7849078021    0.3474570164    0.2014118702         -0.0042
H3476      H    0.7760790487    0.3273963990    0.2173150953         -0.0042
H3477      H    0.8296246542    0.4122651868    0.2101343546         -0.0042
H3478      H    0.8143058913    0.3939047192    0.1974343309         -0.0042
H3479      H    0.8056918435    0.3624158593    0.3452292686         -0.0042
H3480      H    0.8132076133    0.3607424224    0.3737000719         -0.0042
H3482      H    0.8537303860    0.3379923410    0.3603097669         -0.0042
H3483      H    0.8463562807    0.3395786624    0.3317981635         -0.0042
H3484      H    0.8182987354    0.3583866077    0.1867286280         -0.0042
H3485      H    0.8120532831    0.3600004758    0.1579080244         -0.0042
H3487      H    0.7722856270    0.3848743034    0.1690397170         -0.0042
H3488      H    0.7784059349    0.3833833973    0.1979070765         -0.0042
C3339      C    0.7062205101    0.1930075292    0.4986188409         -0.0042
C3340      C    0.7164037426    0.2022563877    0.5066305641         -0.0042
C3341      C    0.7248638326    0.2124840588    0.4975946803         -0.0042
C3342      C    0.7229447493    0.2132509459    0.4807526608         -0.0042
C3343      C    0.7126119688    0.2037640298    0.4732816004         -0.0042
C3344      C    0.7043982102    0.1938131739    0.4821626417         -0.0042
C3345      C    0.7319506819    0.2240662235    0.4714630188         -0.0042
C3346      C    0.7421975790    0.2331537654    0.4797596342         -0.0042
C3347      C    0.7437951205    0.2320672344    0.4965691608         -0.0042
C3348      C    0.7351873063    0.2218358080    0.5054122053         -0.0042
C3349      C    0.7182472422    0.2014071674    0.5234232769         -0.0042
C3350      C    0.7284883029    0.2107745612    0.5312483085         -0.0042
C3351      C    0.7369480773    0.2209466969    0.5222376883         -0.0042
C3352      C    0.7541135876    0.2413156687    0.5046112092         -0.0042
C3353      C    0.7557779033    0.2403650584    0.5213812141         -0.0042
C3354      C    0.7472310990    0.2302398338    0.5301664996         -0.0042
C3355      C    0.7628117444    0.2515261683    0.4959260827         -0.0042
C3356      C    0.7612258006    0.2525751765    0.4791948018         -0.0042
C3357      C    0.7509083113    0.2434161920    0.4711447616         -0.0042
C3358      C    0.7493090147    0.2445327271    0.4543725084         -0.0042
C3359      C    0.7391495859    0.2355783619    0.4463272169         -0.0042
C3360      C    0.7305913311    0.2255027483    0.4546975482         -0.0042
C3361      C    0.7489973671    0.2293924574    0.5469692509         -0.0042
C3362      C    0.7405825935    0.2193693253    0.5557111377         -0.0042
C3363      C    0.7304896614    0.2101859504    0.5479992788         -0.0042
C3364      C    0.7591626014    0.2385550247    0.5548656321         -0.0042
C3365      C    0.7677009842    0.2486011079    0.5462406243         -0.0042
C3366      C    0.7660370101    0.2495470727    0.5294437688         -0.0042
C3367      C    0.7746839353    0.2596742059    0.5207742304         -0.0042
C3368      C    0.7731098174    0.2606908268    0.5039871225         -0.0042
C3369      C    0.7778970195    0.2577360916    0.5541822008         -0.0042
C3370      C    0.7864535272    0.2677554747    0.5456015410         -0.0042
C3371      C    0.7849389259    0.2687919550    0.5289445075         -0.0042
C3372      C    0.7699480217    0.2627432549    0.4704350342         -0.0042
C3373      C    0.7680610261    0.2635701909    0.4536987810         -0.0042
C3374      C    0.7578750675    0.2545867856    0.4458143647         -0.0042
C3375      C    0.7818831476    0.2708673500    0.4953458187         -0.0042
C3376      C    0.7803306514    0.2718508421    0.4785214232         -0.0042
C3377      C    0.7935372675    0.2788004417    0.5203533166         -0.0042
C3378      C    0.7920708659    0.2798287088    0.5037961692         -0.0042
C3379      C    0.7095165131    0.1906516720    0.5328029728         -0.0042
C3380      C    0.7896727378    0.2822883447    0.4693736225         -0.0042
C3381      C    0.6951378982    0.1941701409    0.5388622340         -0.0042
C3382      C    0.6869428927    0.1840087594    0.5477086761         -0.0042
C3383      C    0.6930608382    0.1703234085    0.5505321069         -0.0042
C3384      C    0.7073823806    0.1667784403    0.5445064872         -0.0042
C3385      C    0.7156164317    0.1769128606    0.5356600967         -0.0042
C3386      C    0.8037537481    0.2780353402    0.4631117901         -0.0042
C3387      C    0.8125782725    0.2878792030    0.4544997992         -0.0042
C3388      C    0.8073785928    0.3019676071    0.4520907948         -0.0042
C3389      C    0.7933419916    0.3062413931    0.4583094627         -0.0042
C3390      C    0.7844877420    0.2964344031    0.4669463076         -0.0042
H3391      H    0.6995427944    0.1850536097    0.5049561490         -0.0042
H3392      H    0.7106131127    0.2037594529    0.4605792413         -0.0042
H3393      H    0.6965345583    0.1866209269    0.4762104831         -0.0042
H3394      H    0.7378056931    0.2363525675    0.4334581931         -0.0042
H3395      H    0.7229851668    0.2189932139    0.4476785333         -0.0042
H3396      H    0.7418213518    0.2186008282    0.5685880226         -0.0042
H3397      H    0.7242638889    0.2026206468    0.5553596042         -0.0042
H3398      H    0.7604444512    0.2378464638    0.5677562872         -0.0042
H3399      H    0.7792756360    0.2571145628    0.5670494491         -0.0042
H3400      H    0.7942686217    0.2746972187    0.5519947416         -0.0042
H3401      H    0.7744190033    0.2711674495    0.4465063477         -0.0042
H3402      H    0.7567022539    0.2555131034    0.4329398507         -0.0042
H3403      H    0.8014523607    0.2858621548    0.5264530579         -0.0042
H3404      H    0.7990070230    0.2877488506    0.4977078245         -0.0042
H3405      H    0.6903223289    0.2047435728    0.5367308945         -0.0042
H3406      H    0.6758480551    0.1867315057    0.5523668493         -0.0042
H3408      H    0.7121071470    0.1561856615    0.5466944329         -0.0042
H3409      H    0.7267037769    0.1740832406    0.5310351372         -0.0042
H3410      H    0.8078572975    0.2671379035    0.4649199215         -0.0042
H3411      H    0.8234432512    0.2845899389    0.4496853676         -0.0042
H3413      H    0.7893318088    0.3171494776    0.4564365320         -0.0042
H3414      H    0.7736320275    0.2998239380    0.4717351976         -0.0042
C3265      C    0.8030969464    0.6613018700    0.8094149750         -0.0042
C3266      C    0.8047157203    0.6497843958    0.7985208822         -0.0042
C3267      C    0.8082496315    0.6528626857    0.7822582001         -0.0042
C3268      C    0.8101038988    0.6673848079    0.7772494239         -0.0042
C3269      C    0.8083732874    0.6785398721    0.7886032770         -0.0042
C3270      C    0.8049242863    0.6754647152    0.8044443293         -0.0042
C3271      C    0.8138040029    0.6704004926    0.7601005517         -0.0042
C3272      C    0.8152480074    0.6586613260    0.7493588640         -0.0042
C3273      C    0.8133187053    0.6443234007    0.7548079017         -0.0042
C3274      C    0.8098711343    0.6414481651    0.7711200351         -0.0042
C3275      C    0.8028379068    0.6353422022    0.8036226731         -0.0042
C3276      C    0.8045221019    0.6239402568    0.7925423584         -0.0042
C3277      C    0.8080094603    0.6270095072    0.7763235228         -0.0042
C3278      C    0.8148556764    0.6327438983    0.7438184808         -0.0042
C3279      C    0.8130005354    0.6183914602    0.7491162461         -0.0042
C3280      C    0.8096056841    0.6155251078    0.7652935822         -0.0042
C3281      C    0.8182308013    0.6354663848    0.7275048920         -0.0042
C3282      C    0.8201213434    0.6497435343    0.7220981302         -0.0042
C3283      C    0.8186589635    0.6613099571    0.7330282914         -0.0042
C3284      C    0.8206144070    0.6756104432    0.7275753517         -0.0042
C3285      C    0.8192288503    0.6870853896    0.7382555344         -0.0042
C3286      C    0.8158839381    0.6845604249    0.7542621526         -0.0042
C3287      C    0.8077758428    0.6010949712    0.7704586340         -0.0042
C3288      C    0.8043874910    0.5982070930    0.7864529646         -0.0042
C3289      C    0.8027684275    0.6094335270    0.7973428324         -0.0042
C3290      C    0.8093333243    0.5896982617    0.7595909859         -0.0042
C3291      C    0.8126662199    0.5924493300    0.7435269995         -0.0042
C3292      C    0.8145173410    0.6068252813    0.7382222199         -0.0042
C3293      C    0.8178531892    0.6095667305    0.7220063996         -0.0042
C3294      C    0.8197095912    0.6238947238    0.7165904360         -0.0042
C3295      C    0.8141818499    0.5810122828    0.7326684694         -0.0042
C3296      C    0.8174812640    0.5837269645    0.7166227277         -0.0042
C3297      C    0.8193181216    0.5979250704    0.7111942265         -0.0042
C3298      C    0.8234465984    0.6525315730    0.7057651933         -0.0042
C3299      C    0.8253316667    0.6669429054    0.7007317620         -0.0042
C3300      C    0.8239371386    0.6782960229    0.7115086114         -0.0042
C3301      C    0.8230108073    0.6265674128    0.7002545129         -0.0042
C3302      C    0.8248264926    0.6409281621    0.6948287480         -0.0042
C3303      C    0.8225832518    0.6006396688    0.6951185454         -0.0042
C3304      C    0.8243838862    0.6147424816    0.6896930415         -0.0042
C3305      C    0.7990221926    0.6321631971    0.8205500093         -0.0042
C3306      C    0.8280065300    0.6438160336    0.6777010196         -0.0042
C3307      C    0.8106073193    0.6301887596    0.8318566922         -0.0042
C3308      C    0.8069702746    0.6271836227    0.8478014769         -0.0042
C3309      C    0.7917828602    0.6261414001    0.8525077038         -0.0042
C3310      C    0.7802096887    0.6281087703    0.8412745035         -0.0042
C3311      C    0.7838005946    0.6311091839    0.8253157613         -0.0042
C3312      C    0.8159839511    0.6462019118    0.6670127208         -0.0042
C3313      C    0.8189747844    0.6489087449    0.6508538672         -0.0042
C3314      C    0.8339471104    0.6492656821    0.6453227368         -0.0042
C3315      C    0.8459605790    0.6468995605    0.6559476618         -0.0042
C3316      C    0.8430185233    0.6441718082    0.6721159074         -0.0042
H3317      H    0.8004101501    0.6595149145    0.8218922397         -0.0042
H3318      H    0.8096137151    0.6897691667    0.7856223159         -0.0042
H3319      H    0.8036313488    0.6841722412    0.8129722734         -0.0042
H3320      H    0.8207301659    0.6981075052    0.7342148403         -0.0042
H3321      H    0.8150132333    0.6939467321    0.7617800583         -0.0042
H3322      H    0.8029541861    0.5872055751    0.7905757038         -0.0042
H3323      H    0.8001329062    0.6065786254    0.8095896745         -0.0042
H3324      H    0.8079244102    0.5786604017    0.7636474689         -0.0042
H3325      H    0.8127879278    0.5699489119    0.7365862489         -0.0042
H3326      H    0.8185914886    0.5747162268    0.7084470275         -0.0042
H3327      H    0.8279139579    0.6696137835    0.6884212010         -0.0042
H3328      H    0.8254633651    0.6892432220    0.7072366657         -0.0042
H3329      H    0.8237350885    0.5918225615    0.6866842225         -0.0042
H3330      H    0.8268860244    0.6162573910    0.6771226322         -0.0042
H3331      H    0.8223945014    0.6309758973    0.8283084848         -0.0042
H3332      H    0.8159162283    0.6256729344    0.8565148842         -0.0042
H3334      H    0.7684606848    0.6273028118    0.8449265421         -0.0042
H3335      H    0.7747692459    0.6326173005    0.8166866270         -0.0042
H3336      H    0.8043539098    0.6459502169    0.6712070247         -0.0042
H3337      H    0.8096916392    0.6507368694    0.6426176449         -0.0042
H3339      H    0.8575436183    0.6471781757    0.6516499779         -0.0042
H3340      H    0.8523804249    0.6423407630    0.6802733203         -0.0042
C3191      C    0.8607216737    0.4409723361    0.5065638383         -0.0042
C3192      C    0.8546092694    0.4536402704    0.4997978822         -0.0042
C3193      C    0.8553611834    0.4667612379    0.5086016935         -0.0042
C3194      C    0.8622216172    0.4669319812    0.5239661180         -0.0042
C3195      C    0.8681814424    0.4539729431    0.5302253814         -0.0042
C3196      C    0.8674094879    0.4412131450    0.5215790775         -0.0042
C3197      C    0.8628902847    0.4808287359    0.5330390497         -0.0042
C3198      C    0.8565620280    0.4933809666    0.5260508778         -0.0042
C3199      C    0.8498167440    0.4927807538    0.5106957985         -0.0042
C3200      C    0.8492408737    0.4795903811    0.5020371559         -0.0042
C3201      C    0.8477844198    0.4533634458    0.4844767266         -0.0042
C3202      C    0.8417377344    0.4661661910    0.4778801587         -0.0042
C3203      C    0.8424548414    0.4792384959    0.4866708697         -0.0042
C3204      C    0.8435837397    0.5055126647    0.5039368208         -0.0042
C3205      C    0.8368627064    0.5050627608    0.4886100243         -0.0042
C3206      C    0.8363063053    0.4919947799    0.4800013890         -0.0042
C3207      C    0.8440287346    0.5187244390    0.5124732494         -0.0042
C3208      C    0.8507229788    0.5192958839    0.5277643949         -0.0042
C3209      C    0.8570021564    0.5066417364    0.5345134860         -0.0042
C3210      C    0.8637530365    0.5072660006    0.5498266851         -0.0042
C3211      C    0.8700025816    0.4948641847    0.5565724377         -0.0042
C3212      C    0.8696009800    0.4818441368    0.5483457282         -0.0042
C3213      C    0.8295431793    0.4916820940    0.4646499023         -0.0042
C3214      C    0.8289414268    0.4787667942    0.4560971998         -0.0042
C3215      C    0.8349248819    0.4661910506    0.4625887346         -0.0042
C3216      C    0.8234360615    0.5042699687    0.4580060493         -0.0042
C3217      C    0.8239133235    0.5172615610    0.4664756701         -0.0042
C3218      C    0.8306395584    0.5177083179    0.4818290250         -0.0042
C3219      C    0.8310806717    0.5308231752    0.4903536221         -0.0042
C3220      C    0.8377652127    0.5313738427    0.5057074349         -0.0042
C3221      C    0.8177538888    0.5298393324    0.4598024321         -0.0042
C3222      C    0.8181899794    0.5428155003    0.4682399481         -0.0042
C3223      C    0.8247975319    0.5434085913    0.4834817968         -0.0042
C3224      C    0.8511486310    0.5324846119    0.5363866167         -0.0042
C3225      C    0.8579818348    0.5327198313    0.5516469797         -0.0042
C3226      C    0.8641920205    0.5202760677    0.5582384216         -0.0042
C3227      C    0.8381184882    0.5445914078    0.5142287816         -0.0042
C3228      C    0.8447794864    0.5451248983    0.5296303593         -0.0042
C3229      C    0.8251967276    0.5563957857    0.4919425522         -0.0042
C3230      C    0.8317313858    0.5570024358    0.5071037373         -0.0042
C3231      C    0.8468923717    0.4396484172    0.4753789981         -0.0042
C3232      C    0.8449409872    0.5588543147    0.5387321536         -0.0042
C3233      C    0.8587512837    0.4356002688    0.4651152607         -0.0042
C3234      C    0.8578688069    0.4226689649    0.4565486047         -0.0042
C3235      C    0.8451683139    0.4137485138    0.4581949317         -0.0042
C3236      C    0.8333334839    0.4177454747    0.4684168339         -0.0042
C3237      C    0.8341702708    0.4306723454    0.4769991114         -0.0042
C3238      C    0.8330197655    0.5621313555    0.5492557026         -0.0042
C3239      C    0.8331562047    0.5750861359    0.5578286991         -0.0042
C3240      C    0.8451798727    0.5847854543    0.5559508286         -0.0042
C3241      C    0.8570873731    0.5815488207    0.5454759626         -0.0042
C3242      C    0.8569866449    0.5686108618    0.5368641459         -0.0042
H3243      H    0.8604185678    0.4307387195    0.5003474864         -0.0042
H3244      H    0.8735195727    0.4533337577    0.5417832313         -0.0042
H3245      H    0.8720363740    0.4313815171    0.5265905803         -0.0042
H3246      H    0.8752375704    0.4952158434    0.5683074561         -0.0042
H3247      H    0.8746662922    0.4727523497    0.5543048588         -0.0042
H3248      H    0.8237937453    0.4783692238    0.4443257793         -0.0042
H3249      H    0.8341456300    0.4564836138    0.4554414146         -0.0042
H3250      H    0.8182787487    0.5039444470    0.4462210254         -0.0042
H3251      H    0.8125669907    0.5296360160    0.4480479874         -0.0042
H3252      H    0.8133499276    0.5523964994    0.4628456981         -0.0042
H3253      H    0.8586191755    0.5425141445    0.5586631685         -0.0042
H3254      H    0.8693633970    0.5208413411    0.5699937026         -0.0042
H3255      H    0.8204193440    0.5661358902    0.4868301341         -0.0042
H3256      H    0.8317320528    0.5673249828    0.5131582360         -0.0042
H3257      H    0.8686225086    0.4424482475    0.4637721862         -0.0042
H3258      H    0.8670283160    0.4195525163    0.4486437789         -0.0042
H3260      H    0.8235110678    0.4108356373    0.4696858889         -0.0042
H3261      H    0.8249539350    0.4336922277    0.4848915624         -0.0042
H3262      H    0.8236681590    0.5546696016    0.5507823653         -0.0042
H3263      H    0.8239489165    0.5776077026    0.5659338424         -0.0042
H3265      H    0.8663860936    0.5890663822    0.5440335181         -0.0042
H3266      H    0.8662437721    0.5661808267    0.5287658564         -0.0042
C3117      C    0.6649267133    0.8828233954    0.2968962424         -0.0042
C3118      C    0.6524264186    0.8748710576    0.2911381844         -0.0042
C3119      C    0.6502271892    0.8735946716    0.2743262665         -0.0042
C3120      C    0.6605815809    0.8802821585    0.2636424501         -0.0042
C3121      C    0.6729221177    0.8881241059    0.2699866443         -0.0042
C3122      C    0.6750007748    0.8893292731    0.2863943574         -0.0042
C3123      C    0.6580683472    0.8788265514    0.2460110086         -0.0042
C3124      C    0.6453639460    0.8708880777    0.2405196269         -0.0042
C3125      C    0.6352893979    0.8643703548    0.2515487484         -0.0042
C3126      C    0.6377121919    0.8656947227    0.2683055179         -0.0042
C3127      C    0.6421592785    0.8682486742    0.3018806832         -0.0042
C3128      C    0.6297096644    0.8603075878    0.2958927244         -0.0042
C3129      C    0.6274965348    0.8590632438    0.2791351733         -0.0042
C3130      C    0.6226601844    0.8564455774    0.2457477802         -0.0042
C3131      C    0.6125528467    0.8498592057    0.2566276890         -0.0042
C3132      C    0.6149565634    0.8511452204    0.2732460969         -0.0042
C3133      C    0.6200794877    0.8550915360    0.2290667301         -0.0042
C3134      C    0.6301030355    0.8616058941    0.2181090032         -0.0042
C3135      C    0.6427372881    0.8694639020    0.2238436577         -0.0042
C3136      C    0.6527945515    0.8759398914    0.2128195019         -0.0042
C3137      C    0.6652979710    0.8836821064    0.2183448647         -0.0042
C3138      C    0.6679273981    0.8851195461    0.2346625095         -0.0042
C3139      C    0.6047488924    0.8444930262    0.2840299809         -0.0042
C3140      C    0.6070665652    0.8457589708    0.3004890975         -0.0042
C3141      C    0.6193370405    0.8535467861    0.3063575578         -0.0042
C3142      C    0.5923218199    0.8366574667    0.2782630490         -0.0042
C3143      C    0.5898405230    0.8353565097    0.2618074469         -0.0042
C3144      C    0.5999614093    0.8419592299    0.2509128940         -0.0042
C3145      C    0.5974139112    0.8406481963    0.2343224768         -0.0042
C3146      C    0.6074558904    0.8472179421    0.2233445154         -0.0042
C3147      C    0.5773637069    0.8275310667    0.2560745095         -0.0042
C3148      C    0.5748437320    0.8262360412    0.2396576625         -0.0042
C3149      C    0.5847688281    0.8327474171    0.2287238865         -0.0042
C3150      C    0.6275400911    0.8603277367    0.2013964513         -0.0042
C3151      C    0.6378139312    0.8669280154    0.1907264267         -0.0042
C3152      C    0.6502555761    0.8746098019    0.1963894908         -0.0042
C3153      C    0.6047889016    0.8458933097    0.2066801824         -0.0042
C3154      C    0.6148314857    0.8525133535    0.1956900920         -0.0042
C3155      C    0.5822190923    0.8314787580    0.2122879840         -0.0042
C3156      C    0.5920518936    0.8379646491    0.2014028721         -0.0042
C3157      C    0.6443966261    0.8696990950    0.3194023211         -0.0042
C3158      C    0.6119561179    0.8513933638    0.1782508898         -0.0042
C3159      C    0.6533562223    0.8596744034    0.3277075293         -0.0042
C3160      C    0.6554330932    0.8610681606    0.3442264179         -0.0042
C3161      C    0.6485864229    0.8724538879    0.3524982740         -0.0042
C3162      C    0.6396566414    0.8824663327    0.3442597476         -0.0042
C3163      C    0.6375465478    0.8811058522    0.3277409392         -0.0042
C3164      C    0.6033365795    0.8620031812    0.1704492508         -0.0042
C3165      C    0.6006051717    0.8609438457    0.1540056793         -0.0042
C3166      C    0.6064761106    0.8493263305    0.1453043280         -0.0042
C3167      C    0.6150812619    0.8387338647    0.1530428157         -0.0042
C3168      C    0.6178253664    0.8397432757    0.1694915962         -0.0042
H3169      H    0.6670770831    0.8841087053    0.3095636109         -0.0042
H3170      H    0.6811818578    0.8934604392    0.2625812113         -0.0042
H3171      H    0.6845310750    0.8954000737    0.2910288591         -0.0042
H3172      H    0.6731108765    0.8886805405    0.2099966388         -0.0042
H3173      H    0.6778084922    0.8912280683    0.2380136721         -0.0042
H3174      H    0.5993376856    0.8407201398    0.3088876822         -0.0042
H3175      H    0.6205861061    0.8541840908    0.3192224872         -0.0042
H3176      H    0.5845508820    0.8315779425    0.2866099547         -0.0042
H3177      H    0.5695255841    0.8224232379    0.2643019138         -0.0042
H3178      H    0.5651205697    0.8201422557    0.2355051802         -0.0042
H3179      H    0.6363677669    0.8662273282    0.1778883986         -0.0042
H3180      H    0.6579310562    0.8795427873    0.1878547516         -0.0042
H3181      H    0.5725667081    0.8254579728    0.2078148369         -0.0042
H3182      H    0.5895554716    0.8366687103    0.1888012693         -0.0042
H3183      H    0.6586943711    0.8508270571    0.3213909300         -0.0042
H3184      H    0.6623556132    0.8533347946    0.3506182420         -0.0042
H3186      H    0.6343647665    0.8912746922    0.3506690043         -0.0042
H3187      H    0.6306110285    0.8889059813    0.3214468378         -0.0042
H3188      H    0.5987557556    0.8710402138    0.1771054334         -0.0042
H3189      H    0.5939452116    0.8691284060    0.1480023759         -0.0042
H3191      H    0.6196177481    0.8297473249    0.1462932934         -0.0042
H3192      H    0.6244927380    0.8314941312    0.1754058621         -0.0042
C3043      C    0.6720611573    0.0312905676    0.5620319442         -0.0042
C3044      C    0.6664907123    0.0294485491    0.5463426398         -0.0042
C3045      C    0.6668952004    0.0154835443    0.5392844925         -0.0042
C3046      C    0.6728432863    0.0036660864    0.5480723931         -0.0042
C3047      C    0.6782809759    0.0060540639    0.5637398834         -0.0042
C3048      C    0.6778561793    0.0197003474    0.5705524370         -0.0042
C3049      C    0.6731827749    0.9890725912    0.5404397794         -0.0042
C3050      C    0.6676409497    0.9875165388    0.5246234237         -0.0042
C3051      C    0.6617918111    0.9995618684    0.5162442342         -0.0042
C3052      C    0.6614022907    0.0134202789    0.5235197606         -0.0042
C3053      C    0.6605899381    0.0412951367    0.5376713414         -0.0042
C3054      C    0.6550405815    0.0392412078    0.5219718969         -0.0042
C3055      C    0.6554762253    0.0253279267    0.5149215865         -0.0042
C3056      C    0.6562756738    0.9977185322    0.5004208180         -0.0042
C3057      C    0.6503732883    0.0096417010    0.4919536581         -0.0042
C3058      C    0.6499585305    0.0233845672    0.4991642308         -0.0042
C3059      C    0.6566560454    0.9839672968    0.4930027124         -0.0042
C3060      C    0.6625049095    0.9719973176    0.5013500132         -0.0042
C3061      C    0.6679565507    0.9737799153    0.5171461624         -0.0042
C3062      C    0.6737652399    0.9617422354    0.5255006912         -0.0042
C3063      C    0.6791368452    0.9633758213    0.5410849543         -0.0042
C3064      C    0.6788629786    0.9768026445    0.5484697102         -0.0042
C3065      C    0.6440133428    0.0352498714    0.4905570881         -0.0042
C3066      C    0.6436055428    0.0488778082    0.4976342546         -0.0042
C3067      C    0.6490374537    0.0508721625    0.5130904202         -0.0042
C3068      C    0.6385513541    0.0333840600    0.4749628809         -0.0042
C3069      C    0.6389512416    0.0198023175    0.4677165550         -0.0042
C3070      C    0.6448693033    0.0078633512    0.4761966397         -0.0042
C3071      C    0.6452810562    0.9941827656    0.4688454531         -0.0042
C3072      C    0.6511854751    0.9821920696    0.4772172655         -0.0042
C3073      C    0.6335056485    0.0179796405    0.4520843259         -0.0042
C3074      C    0.6339153069    0.0044420188    0.4448113993         -0.0042
C3075      C    0.6397763327    0.9925192631    0.4530667208         -0.0042
C3076      C    0.6629630014    0.9582164636    0.4939569977         -0.0042
C3077      C    0.6688340289    0.9464299600    0.5026501158         -0.0042
C3078      C    0.6741430735    0.9481972798    0.5181978472         -0.0042
C3079      C    0.6516098909    0.9684795412    0.4697241473         -0.0042
C3080      C    0.6575670721    0.9564797906    0.4781038854         -0.0042
C3081      C    0.6402198986    0.9789740651    0.4457645635         -0.0042
C3082      C    0.6460668261    0.9671175025    0.4539360301         -0.0042
C3083      C    0.6603018877    0.0558682660    0.5449984583         -0.0042
C3084      C    0.6583006411    0.9421608565    0.4702347891         -0.0042
C3085      C    0.6477359226    0.0603016798    0.5540597228         -0.0042
C3086      C    0.6474971887    0.0740504043    0.5609408348         -0.0042
C3087      C    0.6597797439    0.0834051751    0.5588055335         -0.0042
C3088      C    0.6723225702    0.0790209005    0.5497895753         -0.0042
C3089      C    0.6726014214    0.0652822805    0.5428824896         -0.0042
C3090      C    0.6713710720    0.9380887952    0.4617733239         -0.0042
C3091      C    0.6720628858    0.9245927115    0.4543327040         -0.0042
C3092      C    0.6597452779    0.9151236486    0.4553311190         -0.0042
C3093      C    0.6467002856    0.9191456073    0.4637646658         -0.0042
C3094      C    0.6459543295    0.9326411826    0.4712087726         -0.0042
H3095      H    0.6720043756    0.0416896057    0.5679091149         -0.0042
H3096      H    0.6829385975    0.9975920652    0.5710561112         -0.0042
H3097      H    0.6820917931    0.0213161462    0.5825826482         -0.0042
H3098      H    0.6835986776    0.9542098037    0.5476273111         -0.0042
H3099      H    0.6831786031    0.9772163747    0.5605055191         -0.0042
H3100      H    0.6390833823    0.0580633162    0.4911806891         -0.0042
H3101      H    0.6484532425    0.0616652254    0.5179882521         -0.0042
H3102      H    0.6339986421    0.0425350305    0.4684447368         -0.0042
H3103      H    0.6289449447    0.0270446855    0.4454606767         -0.0042
H3104      H    0.6296511851    0.0032939661    0.4327164558         -0.0042
H3105      H    0.6693850207    0.9357114513    0.4975502335         -0.0042
H3106      H    0.6785761540    0.9389052922    0.5245386497         -0.0042
H3107      H    0.6360443096    0.9775322217    0.4336676922         -0.0042
H3108      H    0.6461676709    0.9568685391    0.4477304855         -0.0042
H3109      H    0.6381797275    0.0531236050    0.5557671794         -0.0042
H3110      H    0.6378027226    0.0774545365    0.5679375984         -0.0042
H3112      H    0.6818230990    0.0862652537    0.5481452431         -0.0042
H3113      H    0.6823592625    0.0619681665    0.5359136718         -0.0042
H3114      H    0.6809640713    0.9453612641    0.4609520483         -0.0042
H3115      H    0.6821462725    0.9214673147    0.4477988457         -0.0042
H3117      H    0.6371745425    0.9118061093    0.4645269906         -0.0042
H3118      H    0.6358100977    0.9356856425    0.4777119665         -0.0042
C2969      C    0.7443101128    0.8065831882    0.4679967522         -0.0042
C2970      C    0.7389687420    0.7974784606    0.4802887502         -0.0042
C2971      C    0.7491361850    0.7874467261    0.4874400482         -0.0042
C2972      C    0.7644220203    0.7867495443    0.4821581773         -0.0042
C2973      C    0.7692307847    0.7960911495    0.4698187102         -0.0042
C2974      C    0.7592573512    0.8058480877    0.4628932017         -0.0042
C2975      C    0.7749319920    0.7761238422    0.4898155475         -0.0042
C2976      C    0.7692712409    0.7670135095    0.5020430084         -0.0042
C2977      C    0.7539518837    0.7680322041    0.5069881690         -0.0042
C2978      C    0.7439771856    0.7781745903    0.4997655865         -0.0042
C2979      C    0.7237086129    0.7982457755    0.4854689230         -0.0042
C2980      C    0.7185635832    0.7890505760    0.4978147659         -0.0042
C2981      C    0.7286884085    0.7790271982    0.5049178215         -0.0042
C2982      C    0.7485598792    0.7588053785    0.5192884119         -0.0042
C2983      C    0.7333136566    0.7597450975    0.5243586047         -0.0042
C2984      C    0.7234179227    0.7698136299    0.5172238181         -0.0042
C2985      C    0.7583732508    0.7486029402    0.5265450821         -0.0042
C2986      C    0.7736084651    0.7475876750    0.5215893088         -0.0042
C2987      C    0.7790405694    0.7568053224    0.5093786188         -0.0042
C2988      C    0.7943389742    0.7557912661    0.5044780211         -0.0042
C2989      C    0.7998150155    0.7648454720    0.4924778719         -0.0042
C2990      C    0.7903009549    0.7748608656    0.4852440902         -0.0042
C2991      C    0.7081634965    0.7706544963    0.5224108585         -0.0042
C2992      C    0.6983200505    0.7805851359    0.5153636123         -0.0042
C2993      C    0.7034087457    0.7896434757    0.5032465028         -0.0042
C2994      C    0.7028935767    0.7615568125    0.5345721353         -0.0042
C2995      C    0.7126218341    0.7515255882    0.5416833763         -0.0042
C2996      C    0.7278896350    0.7505820423    0.5365986385         -0.0042
C2997      C    0.7376675102    0.7404364072    0.5437756589         -0.0042
C2998      C    0.7529371440    0.7394045935    0.5387659586         -0.0042
C2999      C    0.7072968193    0.7424078079    0.5538320012         -0.0042
C3000      C    0.7169733055    0.7323681527    0.5609314133         -0.0042
C3001      C    0.7321265280    0.7312978627    0.5559883934         -0.0042
C3002      C    0.7834667142    0.7373553208    0.5287746476         -0.0042
C3003      C    0.7986771488    0.7366386182    0.5235926570         -0.0042
C3004      C    0.8040070798    0.7457431762    0.5116212803         -0.0042
C3005      C    0.7626863323    0.7291408591    0.5460021116         -0.0042
C3006      C    0.7779722293    0.7280860686    0.5409442732         -0.0042
C3007      C    0.7418006715    0.7212184183    0.5630720068         -0.0042
C3008      C    0.7568553156    0.7201181117    0.5581558940         -0.0042
C3009      C    0.7130935233    0.8086222785    0.4779013002         -0.0042
C3010      C    0.7881581746    0.7171964045    0.5482568082         -0.0042
C3011      C    0.7116909000    0.8226683702    0.4839817491         -0.0042
C3012      C    0.7016658237    0.8324195034    0.4768257447         -0.0042
C3013      C    0.6930214650    0.8281916430    0.4635978738         -0.0042
C3014      C    0.6943951013    0.8142059049    0.4575032075         -0.0042
C3015      C    0.7044031371    0.8044203955    0.4646306920         -0.0042
C3016      C    0.7895165018    0.7034578553    0.5413486741         -0.0042
C3017      C    0.7991071518    0.6931769024    0.5482506972         -0.0042
C3018      C    0.8073774227    0.6965735345    0.5620297945         -0.0042
C3019      C    0.8060564962    0.7102626562    0.5689429986         -0.0042
C3020      C    0.7964632424    0.7205720739    0.5620886137         -0.0042
H3021      H    0.7370209031    0.8143772171    0.4621868350         -0.0042
H3022      H    0.7806405193    0.7961275596    0.4652418873         -0.0042
H3023      H    0.7631591668    0.8129167582    0.4534343839         -0.0042
H3024      H    0.8115432545    0.7641832122    0.4886344634         -0.0042
H3025      H    0.7953397529    0.7814803729    0.4760997368         -0.0042
H3026      H    0.6866058179    0.7813464287    0.5192175713         -0.0042
H3027      H    0.6952934251    0.7971315243    0.4982015602         -0.0042
H3028      H    0.6911820106    0.7622750179    0.5384923089         -0.0042
H3029      H    0.6956208113    0.7430251926    0.5578319996         -0.0042
H3030      H    0.7126029688    0.7254284914    0.5702920433         -0.0042
H3031      H    0.8066347048    0.7290485930    0.5287292540         -0.0042
H3032      H    0.8157662909    0.7449079914    0.5079301984         -0.0042
H3033      H    0.7377126257    0.7141333072    0.5724485249         -0.0042
H3034      H    0.7638692364    0.7121209427    0.5640167547         -0.0042
H3035      H    0.7183418459    0.8260251424    0.4942214035         -0.0042
H3036      H    0.7006014826    0.8432546430    0.4815193661         -0.0042
H3038      H    0.6877038517    0.8109437874    0.4472656342         -0.0042
H3039      H    0.7054000966    0.7936055547    0.4598387636         -0.0042
H3040      H    0.7831529683    0.7007462579    0.5306690589         -0.0042
H3041      H    0.8001374079    0.6825792620    0.5429187126         -0.0042
H3043      H    0.8124637676    0.7128767091    0.5796085252         -0.0042
H3044      H    0.7954909156    0.7311493905    0.5675148314         -0.0042
C2895      C    0.8911772914    0.6111968088    0.9457231946         -0.0042
C2896      C    0.8988820912    0.6232820588    0.9394742552         -0.0042
C2897      C    0.9150247922    0.6232651280    0.9391935254         -0.0042
C2898      C    0.9231078599    0.6111613741    0.9451489535         -0.0042
C2899      C    0.9148843073    0.5993206451    0.9512798729         -0.0042
C2900      C    0.8991420649    0.5994064085    0.9515214315         -0.0042
C2901      C    0.9400746886    0.6113540526    0.9447629427         -0.0042
C2902      C    0.9475573533    0.6236623800    0.9385534031         -0.0042
C2903      C    0.9390997214    0.6355259785    0.9327194605         -0.0042
C2904      C    0.9229739656    0.6353204225    0.9330158036         -0.0042
C2905      C    0.8907272495    0.6353024254    0.9335721312         -0.0042
C2906      C    0.8986394609    0.6473079567    0.9273365601         -0.0042
C2907      C    0.9147309317    0.6473061646    0.9270909317         -0.0042
C2908      C    0.9468608190    0.6477207446    0.9265251152         -0.0042
C2909      C    0.9385523656    0.6596055779    0.9206283632         -0.0042
C2910      C    0.9225615667    0.6594051962    0.9208921315         -0.0042
C2911      C    0.9629398749    0.6480877175    0.9262207589         -0.0042
C2912      C    0.9713380261    0.6362815798    0.9320568766         -0.0042
C2913      C    0.9636430399    0.6240837872    0.9381802388         -0.0042
C2914      C    0.9721013887    0.6122435005    0.9439713873         -0.0042
C2915      C    0.9646289069    0.6001573163    0.9500002174         -0.0042
C2916      C    0.9488774708    0.5996830736    0.9504029185         -0.0042
C2917      C    0.9143617420    0.6713806514    0.9149452023         -0.0042
C2918      C    0.8985335902    0.6712418869    0.9152090312         -0.0042
C2919      C    0.8907692027    0.6594107947    0.9213136927         -0.0042
C2920      C    0.9220563519    0.6833782774    0.9088114309         -0.0042
C2921      C    0.9379066029    0.6836749073    0.9085378861         -0.0042
C2922      C    0.9462257188    0.6717729449    0.9144507634         -0.0042
C2923      C    0.9622122096    0.6721144859    0.9141836599         -0.0042
C2924      C    0.9706228188    0.6602797594    0.9200779547         -0.0042
C2925      C    0.9455756300    0.6957216674    0.9024224236         -0.0042
C2926      C    0.9613945851    0.6960584641    0.9021604667         -0.0042
C2927      C    0.9697843067    0.6843473871    0.9080095569         -0.0042
C2928      C    0.9874387400    0.6366158366    0.9318337054         -0.0042
C2929      C    0.9955263309    0.6246024914    0.9377073554         -0.0042
C2930      C    0.9879378090    0.6126017090    0.9436750122         -0.0042
C2931      C    0.9866962296    0.6607244108    0.9198201520         -0.0042
C2932      C    0.9951145622    0.6488795345    0.9257698372         -0.0042
C2933      C    0.9856234147    0.6847050706    0.9077824621         -0.0042
C2934      C    0.9939822885    0.6730902227    0.9136177810         -0.0042
C2935      C    0.8739022623    0.6353518469    0.9340056256         -0.0042
C2936      C    0.0119283870    0.6493810363    0.9258058169         -0.0042
C2937      C    0.8655770897    0.6297392830    0.9211181091         -0.0042
C2938      C    0.8497176666    0.6298118100    0.9215612746         -0.0042
C2939      C    0.8421261935    0.6354764370    0.9348473498         -0.0042
C2940      C    0.8503856063    0.6410722323    0.9477133625         -0.0042
C2941      C    0.8662472586    0.6410252837    0.9473123895         -0.0042
C2942      C    0.0196930218    0.6546531186    0.9392513497         -0.0042
C2943      C    0.0355499810    0.6551452554    0.9392852253         -0.0042
C2944      C    0.0436967144    0.6503651073    0.9259355934         -0.0042
C2945      C    0.0359920117    0.6450951429    0.9125142844         -0.0042
C2946      C    0.0201319203    0.6445998221    0.9124233932         -0.0042
H2947      H    0.8789222207    0.6107005514    0.9462018327         -0.0042
H2948      H    0.9202859155    0.5898153252    0.9559839938         -0.0042
H2949      H    0.8930383230    0.5902241619    0.9562836887         -0.0042
H2950      H    0.9709998934    0.5909934162    0.9544542787         -0.0042
H2951      H    0.9439237918    0.5899967904    0.9552004756         -0.0042
H2952      H    0.8921065245    0.6803409666    0.9106938988         -0.0042
H2953      H    0.8785011060    0.6598800871    0.9212336626         -0.0042
H2954      H    0.9156864482    0.6925158815    0.9042614414         -0.0042
H2955      H    0.9393290493    0.7049100379    0.8978584630         -0.0042
H2956      H    0.9670755472    0.7054881296    0.8973860335         -0.0042
H2957      H    0.0078013163    0.6243297634    0.9377515224         -0.0042
H2958      H    0.9945073368    0.6035506319    0.9480897321         -0.0042
H2959      H    0.9915896155    0.6940143950    0.9030892906         -0.0042
H2960      H    0.0062249905    0.6739181603    0.9131853788         -0.0042
H2961      H    0.8713695390    0.6253358695    0.9107861320         -0.0042
H2962      H    0.8433079709    0.6254700475    0.9116181928         -0.0042
H2964      H    0.8445026532    0.6454513243    0.9579905989         -0.0042
H2965      H    0.8725625434    0.6453816834    0.9573264827         -0.0042
H2966      H    0.0134630800    0.6583693231    0.9496430774         -0.0042
H2967      H    0.0415271933    0.6592241844    0.9496585282         -0.0042
H2969      H    0.0423120130    0.6413995508    0.9021895623         -0.0042
H2970      H    0.0142416139    0.6405122644    0.9019820640         -0.0042
C2821      C    0.4980529601    0.8434265935    0.0540155560         -0.0042
C2822      C    0.4888936378    0.8471352164    0.0672290527         -0.0042
C2823      C    0.4728809091    0.8478688412    0.0652128712         -0.0042
C2824      C    0.4663773056    0.8448632713    0.0500375972         -0.0042
C2825      C    0.4760201624    0.8411962649    0.0371771612         -0.0042
C2826      C    0.4916273130    0.8405020320    0.0392227611         -0.0042
C2827      C    0.4495225673    0.8457035958    0.0481556012         -0.0042
C2828      C    0.4405736217    0.8495673954    0.0615661171         -0.0042
C2829      C    0.4474781317    0.8524844935    0.0765103343         -0.0042
C2830      C    0.4634902366    0.8516224875    0.0783235341         -0.0042
C2831      C    0.4954800991    0.8501212188    0.0823093439         -0.0042
C2832      C    0.4861221883    0.8538009897    0.0954181507         -0.0042
C2833      C    0.4701634599    0.8545656588    0.0934000970         -0.0042
C2834      C    0.4382626834    0.8563035163    0.0897764000         -0.0042
C2835      C    0.4450105423    0.8591988777    0.1047577033         -0.0042
C2836      C    0.4608847702    0.8583252714    0.1065773622         -0.0042
C2837      C    0.4222854918    0.8572589727    0.0881130474         -0.0042
C2838      C    0.4154364438    0.8543761519    0.0732248301         -0.0042
C2839      C    0.4245780331    0.8505095588    0.0599912881         -0.0042
C2840      C    0.4176661295    0.8475773486    0.0450935346         -0.0042
C2841      C    0.4265688436    0.8437281345    0.0319844627         -0.0042
C2842      C    0.4422405232    0.8427927317    0.0334505563         -0.0042
C2843      C    0.4675132044    0.8612490886    0.1216529523         -0.0042
C2844      C    0.4832224858    0.8604238411    0.1235035518         -0.0042
C2845      C    0.4924070099    0.8567713351    0.1106057893         -0.0042
C2846      C    0.4583835516    0.8649822112    0.1347211524         -0.0042
C2847      C    0.4426410998    0.8659014892    0.1330091342         -0.0042
C2848      C    0.4358857393    0.8630071981    0.1180016849         -0.0042
C2849      C    0.4200063262    0.8639672160    0.1163058656         -0.0042
C2850      C    0.4131538337    0.8611076779    0.1013553360         -0.0042
C2851      C    0.4335358438    0.8696768677    0.1461116083         -0.0042
C2852      C    0.4178232035    0.8706277276    0.1444311046         -0.0042
C2853      C    0.4109779820    0.8678133922    0.1296175892         -0.0042
C2854      C    0.3994497554    0.8553688736    0.0714801092         -0.0042
C2855      C    0.3929259627    0.8523635198    0.0564325738         -0.0042
C2856      C    0.4019306540    0.8485187163    0.0434504101         -0.0042
C2857      C    0.3971828987    0.8621442475    0.0997305554         -0.0042
C2858      C    0.3903301290    0.8593173970    0.0847359106         -0.0042
C2859      C    0.3952482820    0.8688029103    0.1279306752         -0.0042
C2860      C    0.3884257604    0.8660378367    0.1132124764         -0.0042
C2861      C    0.5121846728    0.8494748991    0.0843506177         -0.0042
C2862      C    0.3736582406    0.8606378469    0.0828779006         -0.0042
C2863      C    0.5192224544    0.8364624412    0.0886486193         -0.0042
C2864      C    0.5349709022    0.8358936657    0.0905735874         -0.0042
C2865      C    0.5437341148    0.8482900004    0.0882183683         -0.0042
C2866      C    0.5367598958    0.8612730579    0.0839281730         -0.0042
C2867      C    0.5210127195    0.8618875186    0.0819986914         -0.0042
C2868      C    0.3672648336    0.8737922468    0.0780169833         -0.0042
C2869      C    0.3515404976    0.8750495994    0.0762812090         -0.0042
C2870      C    0.3421632443    0.8631988574    0.0793603688         -0.0042
C2871      C    0.3485001262    0.8500661796    0.0841999998         -0.0042
C2872      C    0.3642208519    0.8487668674    0.0859688309         -0.0042
H2873      H    0.5102741850    0.8427339007    0.0549443868         -0.0042
H2874      H    0.4718526880    0.8387998027    0.0253703712         -0.0042
H2875      H    0.4988354093    0.8376797456    0.0292080230         -0.0042
H2876      H    0.4213895698    0.8414289394    0.0204952546         -0.0042
H2877      H    0.4483467441    0.8397442931    0.0228261771         -0.0042
H2878      H    0.4884540195    0.8626363080    0.1349825521         -0.0042
H2879      H    0.5045115020    0.8562968942    0.1127118902         -0.0042
H2880      H    0.4635518043    0.8671979796    0.1462471454         -0.0042
H2881      H    0.4385770706    0.8719220768    0.1576732306         -0.0042
H2882      H    0.4110162887    0.8735728757    0.1547227976         -0.0042
H2883      H    0.3807977064    0.8529372634    0.0545165484         -0.0042
H2884      H    0.3965428420    0.8462747674    0.0320557086         -0.0042
H2885      H    0.3881765743    0.8717454873    0.1380301968         -0.0042
H2886      H    0.3762011331    0.8669711557    0.1125413902         -0.0042
H2887      H    0.5125175656    0.8268169827    0.0904966077         -0.0042
H2888      H    0.5403882124    0.8258477120    0.0938779262         -0.0042
H2890      H    0.5435492944    0.8708597299    0.0821054595         -0.0042
H2891      H    0.5156965416    0.8719867337    0.0786755938         -0.0042
H2892      H    0.3744540815    0.8830206780    0.0756009048         -0.0042
H2893      H    0.3466203254    0.8852047628    0.0725426331         -0.0042
H2895      H    0.3412285336    0.8409027256    0.0865800707         -0.0042
H2896      H    0.3690472980    0.8385638755    0.0897304839         -0.0042
C2747      C    0.1472399559    0.7183707072    0.0042521419         -0.0042
C2748      C    0.1576396824    0.7274263173    0.9962775432         -0.0042
C2749      C    0.1663137231    0.7374633331    0.0053501881         -0.0042
C2750      C    0.1644123410    0.7382147529    0.0221954184         -0.0042
C2751      C    0.1538631012    0.7289210440    0.0296293764         -0.0042
C2752      C    0.1454378351    0.7191586672    0.0207119799         -0.0042
C2753      C    0.1736257569    0.7488451485    0.0315206346         -0.0042
C2754      C    0.1839026997    0.7579057339    0.0232283953         -0.0042
C2755      C    0.1854836417    0.7568336882    0.0064158806         -0.0042
C2756      C    0.1767809474    0.7466867190    0.9975569987         -0.0042
C2757      C    0.1594514008    0.7266051235    0.9794791535         -0.0042
C2758      C    0.1699400360    0.7357515509    0.9716966986         -0.0042
C2759      C    0.1785608312    0.7457802403    0.9807347846         -0.0042
C2760      C    0.1958814061    0.7660112422    0.9983868501         -0.0042
C2761      C    0.1975931637    0.7650179980    0.9816250977         -0.0042
C2762      C    0.1889878064    0.7549448308    0.9728303487         -0.0042
C2763      C    0.2045842209    0.7762177527    0.0070719618         -0.0042
C2764      C    0.2029768569    0.7772861849    0.0237995530         -0.0042
C2765      C    0.1926702432    0.7681176535    0.0318524113         -0.0042
C2766      C    0.1911265892    0.7691848792    0.0486345095         -0.0042
C2767      C    0.1810247590    0.7601792938    0.0566908101         -0.0042
C2768      C    0.1724025929    0.7501605247    0.0483100734         -0.0042
C2769      C    0.1908068295    0.7540500809    0.9560367738         -0.0042
C2770      C    0.1822934997    0.7441146868    0.9472783859         -0.0042
C2771      C    0.1720067654    0.7351043152    0.9549570986         -0.0042
C2772      C    0.2010990834    0.7630992062    0.9481618048         -0.0042
C2773      C    0.2096495164    0.7731347058    0.9567881109         -0.0042
C2774      C    0.2079284934    0.7741318738    0.9735750266         -0.0042
C2775      C    0.2165501380    0.7842817204    0.9822392971         -0.0042
C2776      C    0.2148994631    0.7853669440    0.9990130310         -0.0042
C2777      C    0.2199192297    0.7822038231    0.9488585762         -0.0042
C2778      C    0.2284485091    0.7922476553    0.9574336347         -0.0042
C2779      C    0.2268370241    0.7933708656    0.9740737196         -0.0042
C2780      C    0.2116222764    0.7875229311    0.0325449975         -0.0042
C2781      C    0.2097989573    0.7882933914    0.0492925331         -0.0042
C2782      C    0.1996949992    0.7792369984    0.0571922470         -0.0042
C2783      C    0.2235707513    0.7956346454    0.0076355747         -0.0042
C2784      C    0.2218785929    0.7967430258    0.0244355117         -0.0042
C2785      C    0.2353512661    0.8034545262    0.9826493177         -0.0042
C2786      C    0.2337454859    0.8046074237    0.9991820496         -0.0042
C2787      C    0.1503014102    0.7162233979    0.9700266664         -0.0042
C2788      C    0.2307084777    0.8076375467    0.0334924665         -0.0042
C2789      C    0.1556391037    0.7021563368    0.9674312952         -0.0042
C2790      C    0.1469894509    0.6924002969    0.9585057962         -0.0042
C2791      C    0.1330055914    0.6966441398    0.9521515687         -0.0042
C2792      C    0.1276488178    0.7106508149    0.9547199760         -0.0042
C2793      C    0.1362687034    0.7204412693    0.9636333351         -0.0042
C2794      C    0.2245919020    0.8213993384    0.0362059140         -0.0042
C2795      C    0.2329214839    0.8316848155    0.0447301398         -0.0042
C2796      C    0.2473464005    0.8282696509    0.0505860519         -0.0042
C2797      C    0.2534751788    0.8145573671    0.0479101087         -0.0042
C2798      C    0.2451892871    0.8042432817    0.0393739248         -0.0042
H2799      H    0.1403848737    0.7105748642    0.9978843229         -0.0042
H2800      H    0.1518527632    0.7289269501    0.0423298465         -0.0042
H2801      H    0.1373939794    0.7121272614    0.0266331843         -0.0042
H2802      H    0.1797606710    0.7608825649    0.0695739159         -0.0042
H2803      H    0.1648758616    0.7435802760    0.0553437030         -0.0042
H2804      H    0.1835698794    0.7433123890    0.9344080508         -0.0042
H2805      H    0.1657010914    0.7276101374    0.9475833422         -0.0042
H2806      H    0.2024376514    0.7623398115    0.9352810494         -0.0042
H2807      H    0.2213392624    0.7815451091    0.9359985313         -0.0042
H2808      H    0.2363086054    0.7991491394    0.9510476507         -0.0042
H2809      H    0.2161590747    0.7958888781    0.0564847298         -0.0042
H2810      H    0.1985790605    0.7801128334    0.0700768004         -0.0042
H2811      H    0.2432820436    0.8105021339    0.9765516339         -0.0042
H2812      H    0.2405943328    0.8126055553    0.0052544006         -0.0042
H2813      H    0.1664557482    0.6987870896    0.9723083722         -0.0042
H2814      H    0.1511133575    0.6815490174    0.9565213511         -0.0042
H2816      H    0.1168259235    0.7139252993    0.9498011505         -0.0042
H2817      H    0.1320401135    0.7312723611    0.9655674988         -0.0042
H2818      H    0.2134210822    0.8241254174    0.0317149530         -0.0042
H2819      H    0.2281968688    0.8423003491    0.0468057355         -0.0042
H2821      H    0.2646417706    0.8119289839    0.0524487208         -0.0042
H2822      H    0.2500129400    0.7936479482    0.0373396356         -0.0042
C2673      C    0.4953395448    0.1764207617    0.9345951096         -0.0042
C2674      C    0.4873404087    0.1635001436    0.9317331530         -0.0042
C2675      C    0.4712164807    0.1635723199    0.9325976644         -0.0042
C2676      C    0.4634448913    0.1765619940    0.9362861743         -0.0042
C2677      C    0.4719558244    0.1892182637    0.9390506948         -0.0042
C2678      C    0.4876782012    0.1890742006    0.9381916241         -0.0042
C2679      C    0.4464934994    0.1764151921    0.9371529539         -0.0042
C2680      C    0.4387200743    0.1632817530    0.9343636016         -0.0042
C2681      C    0.4468714018    0.1505468845    0.9307136577         -0.0042
C2682      C    0.4629778433    0.1506955793    0.9298159101         -0.0042
C2683      C    0.4951864084    0.1506013463    0.9280730278         -0.0042
C2684      C    0.4869806192    0.1377626075    0.9252210107         -0.0042
C2685      C    0.4709101435    0.1378259869    0.9261195790         -0.0042
C2686      C    0.4388203409    0.1375292736    0.9279334977         -0.0042
C2687      C    0.4468189863    0.1247631924    0.9242374771         -0.0042
C2688      C    0.4627887436    0.1249017986    0.9233186049         -0.0042
C2689      C    0.4227611244    0.1372207084    0.9288561624         -0.0042
C2690      C    0.4146696866    0.1498992962    0.9325168557         -0.0042
C2691      C    0.4226502523    0.1629074270    0.9352316528         -0.0042
C2692      C    0.4144956536    0.1756117009    0.9388450348         -0.0042
C2693      C    0.4222490002    0.1884948256    0.9415081305         -0.0042
C2694      C    0.4379868367    0.1889284698    0.9406808017         -0.0042
C2695      C    0.4706764580    0.1120385648    0.9196014797         -0.0042
C2696      C    0.4864843777    0.1121179012    0.9187079419         -0.0042
C2697      C    0.4945355895    0.1247629971    0.9214814560         -0.0042
C2698      C    0.4626941912    0.0992246060    0.9168317756         -0.0042
C2699      C    0.4468647206    0.0989890230    0.9177526431         -0.0042
C2700      C    0.4388563411    0.1117748786    0.9214613506         -0.0042
C2701      C    0.4228916676    0.1114973731    0.9224081873         -0.0042
C2702      C    0.4147912968    0.1242146028    0.9261202291         -0.0042
C2703      C    0.4389094897    0.0861300907    0.9150099945         -0.0042
C2704      C    0.4231122643    0.0858570605    0.9159489421         -0.0042
C2705      C    0.4150307335    0.0984448346    0.9196429482         -0.0042
C2706      C    0.3985937916    0.1496376514    0.9335130821         -0.0042
C2707      C    0.3908131289    0.1625239603    0.9371421899         -0.0042
C2708      C    0.3986789659    0.1753115674    0.9397563668         -0.0042
C2709      C    0.3987412213    0.1238383619    0.9271053374         -0.0042
C2710      C    0.3906365944    0.1365756356    0.9308697879         -0.0042
C2711      C    0.3992157652    0.0981578050    0.9206220556         -0.0042
C2712      C    0.3911648165    0.1106486199    0.9243219136         -0.0042
C2713      C    0.5120010114    0.1505205635    0.9273167645         -0.0042
C2714      C    0.3738668695    0.1362019064    0.9322070942         -0.0042
C2715      C    0.5194482274    0.1536245347    0.9128798837         -0.0042
C2716      C    0.5353002421    0.1535292473    0.9122065775         -0.0042
C2717      C    0.5437591526    0.1503415610    0.9259179403         -0.0042
C2718      C    0.5363760611    0.1472496787    0.9403254071         -0.0042
C2719      C    0.5205246855    0.1473275830    0.9410458156         -0.0042
C2720      C    0.3670119858    0.1335289971    0.9470735580         -0.0042
C2721      C    0.3511967487    0.1331577444    0.9483389866         -0.0042
C2722      C    0.3421860520    0.1354712137    0.9348023702         -0.0042
C2723      C    0.3489826950    0.1381468398    0.9199642937         -0.0042
C2724      C    0.3647974099    0.1385108444    0.9186422151         -0.0042
H2725      H    0.5075936459    0.1769128233    0.9340845545         -0.0042
H2726      H    0.4667984023    0.1994180067    0.9419069661         -0.0042
H2727      H    0.4940059226    0.1988921122    0.9403624841         -0.0042
H2728      H    0.4161109211    0.1983211684    0.9442649105         -0.0042
H2729      H    0.4431657947    0.1992540815    0.9428549837         -0.0042
H2730      H    0.4926740675    0.1023435979    0.9158730343         -0.0042
H2731      H    0.5067739929    0.1242078383    0.9206396942         -0.0042
H2732      H    0.4688249053    0.0894066199    0.9139754555         -0.0042
H2733      H    0.4449166320    0.0762606576    0.9121600896         -0.0042
H2734      H    0.4172073351    0.0757918021    0.9137915200         -0.0042
H2735      H    0.3785669618    0.1628801218    0.9379932965         -0.0042
H2736      H    0.3923410937    0.1850215712    0.9425139542         -0.0042
H2737      H    0.3930305622    0.0882270491    0.9185373556         -0.0042
H2738      H    0.3789283396    0.1098399855    0.9249508583         -0.0042
H2739      H    0.5129809706    0.1561010459    0.9022096980         -0.0042
H2740      H    0.5410325187    0.1559354125    0.9010664956         -0.0042
H2742      H    0.5429299636    0.1447864598    0.9509302603         -0.0042
H2743      H    0.5148912231    0.1449193436    0.9522518783         -0.0042
H2744      H    0.3739146812    0.1317335635    0.9576176751         -0.0042
H2745      H    0.3459214655    0.1310842398    0.9598101741         -0.0042
H2747      H    0.3419945508    0.1399348370    0.9094966346         -0.0042
H2748      H    0.3699815991    0.1405810301    0.9071087748         -0.0042
C2599      C    0.2821791725    0.9392246932    0.0058630297         -0.0042
C2600      C    0.2810857205    0.9527404731    0.0135244148         -0.0042
C2601      C    0.2810373263    0.9655040495    0.0040628572         -0.0042
C2602      C    0.2820658744    0.9644737309    0.9871514785         -0.0042
C2603      C    0.2831360163    0.9506982301    0.9800408389         -0.0042
C2604      C    0.2831795821    0.9382932849    0.9893366312         -0.0042
C2605      C    0.2820101571    0.9780153039    0.9774145119         -0.0042
C2606      C    0.2810295816    0.9914652139    0.9853892406         -0.0042
C2607      C    0.2800175178    0.9920529229    0.0022797935         -0.0042
C2608      C    0.2799995793    0.9791837916    0.0115342825         -0.0042
C2609      C    0.2800735455    0.9536610090    0.0303910774         -0.0042
C2610      C    0.2789658353    0.9672962152    0.0378573041         -0.0042
C2611      C    0.2789535014    0.9800209149    0.0284293205         -0.0042
C2612      C    0.2790129860    0.0056602403    0.0099876338         -0.0042
C2613      C    0.2779546099    0.0063880418    0.0268260369         -0.0042
C2614      C    0.2779112819    0.9936339032    0.0360144415         -0.0042
C2615      C    0.2790815576    0.0185782350    0.0009027546         -0.0042
C2616      C    0.2801155697    0.0179732304    0.9840964674         -0.0042
C2617      C    0.2810566725    0.0044293795    0.9763667499         -0.0042
C2618      C    0.2820390820    0.0038622012    0.9595078762         -0.0042
C2619      C    0.2829392560    0.9905691565    0.9517698553         -0.0042
C2620      C    0.2829236512    0.9778354471    0.9605411337         -0.0042
C2621      C    0.2768424060    0.9945037342    0.0528812113         -0.0042
C2622      C    0.2768235039    0.9819099009    0.0620270038         -0.0042
C2623      C    0.2778796626    0.9685060599    0.0546610883         -0.0042
C2624      C    0.2758196547    0.0079447694    0.0604406568         -0.0042
C2625      C    0.2758872749    0.0206401409    0.0514212765         -0.0042
C2626      C    0.2769539482    0.0199088654    0.0345572569         -0.0042
C2627      C    0.2770452936    0.0327338536    0.0254945990         -0.0042
C2628      C    0.2781209143    0.0321131422    0.0086400068         -0.0042
C2629      C    0.2748982584    0.0340833074    0.0590332838         -0.0042
C2630      C    0.2749903148    0.0467728560    0.0500639387         -0.0042
C2631      C    0.2760701387    0.0462084310    0.0333413600         -0.0042
C2632      C    0.2802448561    0.0308764191    0.9749478767         -0.0042
C2633      C    0.2812333592    0.0299117425    0.9581349015         -0.0042
C2634      C    0.2821084682    0.0165829601    0.9505563514         -0.0042
C2635      C    0.2782589403    0.0450587189    0.9996127910         -0.0042
C2636      C    0.2793802955    0.0444286966    0.9827294352         -0.0042
C2637      C    0.2762010389    0.0589183983    0.0243685149         -0.0042
C2638      C    0.2773030030    0.0583823738    0.0077513271         -0.0042
C2639      C    0.2802608948    0.9403488458    0.0402408512         -0.0042
C2640      C    0.2798099083    0.0579338286    0.9732328286         -0.0042
C2641      C    0.2666526799    0.9332109189    0.0438777239         -0.0042
C2642      C    0.2668694110    0.9206699546    0.0531750892         -0.0042
C2643      C    0.2806465153    0.9152192840    0.0588640330         -0.0042
C2644      C    0.2942286797    0.9223005637    0.0552574205         -0.0042
C2645      C    0.2940587833    0.9348489323    0.0459691553         -0.0042
C2646      C    0.2937845126    0.0643506372    0.9694764789         -0.0042
C2647      C    0.2941965595    0.0770972125    0.9605369447         -0.0042
C2648      C    0.2806898399    0.0834584377    0.9553042201         -0.0042
C2649      C    0.2667383347    0.0770855451    0.9590203003         -0.0042
C2650      C    0.2662743442    0.0643452394    0.9679747909         -0.0042
H2651      H    0.2822681701    0.9292209501    0.0125310731         -0.0042
H2652      H    0.2839558020    0.9491384993    0.9673107227         -0.0042
H2653      H    0.2840199626    0.9278247267    0.9836589345         -0.0042
H2654      H    0.2836723745    0.9899970518    0.9388330929         -0.0042
H2655      H    0.2836279911    0.9680038218    0.9537384053         -0.0042
H2656      H    0.2760118640    0.9824151374    0.0749577013         -0.0042
H2657      H    0.2778203312    0.9590976276    0.0623286761         -0.0042
H2658      H    0.2749916522    0.0085215061    0.0733806971         -0.0042
H2659      H    0.2740777623    0.0347862590    0.0719484206         -0.0042
H2660      H    0.2742231223    0.0570395315    0.0562088076         -0.0042
H2661      H    0.2813319315    0.0394346827    0.9506434996         -0.0042
H2662      H    0.2828499164    0.0162333451    0.9376111185         -0.0042
H2663      H    0.2754663352    0.0693322579    0.0302182214         -0.0042
H2664      H    0.2773749346    0.0685409591    0.0013650272         -0.0042
H2665      H    0.2559380411    0.9373630020    0.0395207230         -0.0042
H2666      H    0.2563663001    0.9151674052    0.0559631550         -0.0042
H2668      H    0.3048846331    0.9180744559    0.0596619887         -0.0042
H2669      H    0.3046291827    0.9402717655    0.0432297146         -0.0042
H2670      H    0.3042982241    0.0594844068    0.9734797124         -0.0042
H2671      H    0.3049820278    0.0820433700    0.9576566679         -0.0042
H2673      H    0.2562928790    0.0820212782    0.9549631357         -0.0042
H2674      H    0.2554263207    0.0594754738    0.9708152451         -0.0042
C2525      C    0.9980997964    0.3440648353    0.0538274069         -0.0042
C2526      C    0.9889110379    0.3475046940    0.0671074749         -0.0042
C2527      C    0.9729015993    0.3482646748    0.0650743092         -0.0042
C2528      C    0.9664306439    0.3455534487    0.0498154957         -0.0042
C2529      C    0.9761022037    0.3421486389    0.0368904769         -0.0042
C2530      C    0.9917059697    0.3414271268    0.0389531159         -0.0042
C2531      C    0.9495788325    0.3464167663    0.0479172163         -0.0042
C2532      C    0.9405999151    0.3500080563    0.0613984819         -0.0042
C2533      C    0.9474723137    0.3526357143    0.0764250320         -0.0042
C2534      C    0.9634816496    0.3517513816    0.0782521506         -0.0042
C2535      C    0.9954650558    0.3501982969    0.0822710366         -0.0042
C2536      C    0.9860779422    0.3536112096    0.0954453032         -0.0042
C2537      C    0.9701224776    0.3544023086    0.0934111374         -0.0042
C2538      C    0.9382272203    0.3561848645    0.0897602096         -0.0042
C2539      C    0.9449429165    0.3587899314    0.1048229650         -0.0042
C2540      C    0.9608143741    0.3578937603    0.1066559562         -0.0042
C2541      C    0.9222524143    0.3571597018    0.0880852449         -0.0042
C2542      C    0.9154353348    0.3545652552    0.0731156345         -0.0042
C2543      C    0.9246065514    0.3509678444    0.0598116566         -0.0042
C2544      C    0.9177266825    0.3483241564    0.0448311763         -0.0042
C2545      C    0.9266587637    0.3447414714    0.0316515339         -0.0042
C2546      C    0.9423284260    0.3437903176    0.0331291008         -0.0042
C2547      C    0.9674104337    0.3605253201    0.1218134026         -0.0042
C2548      C    0.9831168382    0.3596767508    0.1236781364         -0.0042
C2549      C    0.9923301258    0.3562867957    0.1107151426         -0.0042
C2550      C    0.9582516059    0.3639925597    0.1349488685         -0.0042
C2551      C    0.9425116692    0.3649323793    0.1332248895         -0.0042
C2552      C    0.9357885217    0.3623288915    0.1181360040         -0.0042
C2553      C    0.9199115531    0.3633090093    0.1164289062         -0.0042
C2554      C    0.9130911290    0.3607390647    0.1013975554         -0.0042
C2555      C    0.9333771303    0.3684412096    0.1463956994         -0.0042
C2556      C    0.9176669129    0.3694120072    0.1447040587         -0.0042
C2557      C    0.9108534479    0.3668845611    0.1298108012         -0.0042
C2558      C    0.8994511558    0.3555789441    0.0713602037         -0.0042
C2559      C    0.8929597607    0.3528654007    0.0562290586         -0.0042
C2560      C    0.9019935659    0.3492847089    0.0431766254         -0.0042
C2561      C    0.8971224261    0.3617942410    0.0997631339         -0.0042
C2562      C    0.8903017799    0.3592578450    0.0846884705         -0.0042
C2563      C    0.8951261462    0.3678941199    0.1281136516         -0.0042
C2564      C    0.8883351468    0.3654140645    0.1133169321         -0.0042
C2565      C    0.0121662045    0.3495256759    0.0843329287         -0.0042
C2566      C    0.8736323101    0.3606008512    0.0828262156         -0.0042
C2567      C    0.0192080306    0.3364374507    0.0883298787         -0.0042
C2568      C    0.0349532095    0.3358438590    0.0902752681         -0.0042
C2569      C    0.0437091192    0.3482908486    0.0882404853         -0.0042
C2570      C    0.0367308684    0.3613495790    0.0842507667         -0.0042
C2571      C    0.0209869260    0.3619889349    0.0823019754         -0.0042
C2572      C    0.8672358242    0.3738426059    0.0782713460         -0.0042
C2573      C    0.8515137253    0.3751209022    0.0765318539         -0.0042
C2574      C    0.8421418339    0.3632046059    0.0793022799         -0.0042
C2575      C    0.8484818158    0.3499849410    0.0838362706         -0.0042
C2576      C    0.8642002799    0.3486640409    0.0856077862         -0.0042
H2577      H    0.0103198332    0.3433640762    0.0547661278         -0.0042
H2578      H    0.9719601839    0.3399819335    0.0250192486         -0.0042
H2579      H    0.9989363865    0.3388087634    0.0288882304         -0.0042
H2580      H    0.9215042313    0.3426649194    0.0200979415         -0.0042
H2581      H    0.9484583824    0.3409569596    0.0224468113         -0.0042
H2582      H    0.9883237337    0.3616668395    0.1352195356         -0.0042
H2583      H    0.0044309129    0.3557809457    0.1128358850         -0.0042
H2584      H    0.9633951252    0.3659849711    0.1465371899         -0.0042
H2585      H    0.9383935260    0.3704622481    0.1580200756         -0.0042
H2586      H    0.9108370157    0.3721480768    0.1550496949         -0.0042
H2587      H    0.8808347415    0.3534667652    0.0543007015         -0.0042
H2588      H    0.8966302574    0.3472613561    0.0317183972         -0.0042
H2589      H    0.8880318360    0.3706311871    0.1382665172         -0.0042
H2590      H    0.8761109714    0.3663503113    0.1126417205         -0.0042
H2591      H    0.0125087936    0.3267523681    0.0899287856         -0.0042
H2592      H    0.0403736693    0.3257396703    0.0933471553         -0.0042
H2594      H    0.0435146219    0.3709754609    0.0826758893         -0.0042
H2595      H    0.0156675839    0.3721468252    0.0792128481         -0.0042
H2596      H    0.8744209328    0.3831223525    0.0760954407         -0.0042
H2597      H    0.8465911486    0.3853432393    0.0730295768         -0.0042
H2599      H    0.8412143709    0.3407707977    0.0859775711         -0.0042
H2600      H    0.8690291314    0.3383933548    0.0891317687         -0.0042
C2451      C    0.0665078408    0.4589533975    0.0461945899         -0.0042
C2452      C    0.0787212049    0.4641998547    0.0369742091         -0.0042
C2453      C    0.0775681307    0.4780920262    0.0298315484         -0.0042
C2454      C    0.0642390062    0.4864387725    0.0320786855         -0.0042
C2455      C    0.0523227832    0.4807190973    0.0414134761         -0.0042
C2456      C    0.0535183676    0.4671627578    0.0483440496         -0.0042
C2457      C    0.0632383210    0.5010112929    0.0244613226         -0.0042
C2458      C    0.0755985070    0.5059951755    0.0151468042         -0.0042
C2459      C    0.0887051883    0.4973556801    0.0131848270         -0.0042
C2460      C    0.0896901785    0.4835334660    0.0204825046         -0.0042
C2461      C    0.0919604370    0.4557978421    0.0347932629         -0.0042
C2462      C    0.1040914113    0.4612390867    0.0255326839         -0.0042
C2463      C    0.1029284924    0.4750724865    0.0183813523         -0.0042
C2464      C    0.1009521273    0.5026036749    0.0038229809         -0.0042
C2465      C    0.1141054726    0.4941054105    0.0018131608         -0.0042
C2466      C    0.1151058023    0.4804072588    0.0090644269         -0.0042
C2467      C    0.1000896063    0.5163446934    0.9964265240         -0.0042
C2468      C    0.0870265392    0.5249170892    0.9983698697         -0.0042
C2469      C    0.0748219232    0.5197484175    0.0077449547         -0.0042
C2470      C    0.0617615938    0.5283954601    0.0097132580         -0.0042
C2471      C    0.0496831161    0.5234160350    0.0189557883         -0.0042
C2472      C    0.0503742331    0.5099537227    0.0262298894         -0.0042
C2473      C    0.1283488475    0.4719928389    0.0069643266         -0.0042
C2474      C    0.1293787670    0.4584170164    0.0140942824         -0.0042
C2475      C    0.1174496781    0.4530954083    0.0232286195         -0.0042
C2476      C    0.1404207377    0.4772186687    0.9977498699         -0.0042
C2477      C    0.1395062942    0.4907736030    0.9904936698         -0.0042
C2478      C    0.1263287365    0.4992806319    0.9925025901         -0.0042
C2479      C    0.1254298939    0.5129378715    0.9851462676         -0.0042
C2480      C    0.1123048705    0.5215106498    0.9870725298         -0.0042
C2481      C    0.1516018134    0.4959585733    0.9812423517         -0.0042
C2482      C    0.1507099243    0.5094722762    0.9739626697         -0.0042
C2483      C    0.1377049567    0.5180076812    0.9758290108         -0.0042
C2484      C    0.0860822288    0.5386603487    0.9909420961         -0.0042
C2485      C    0.0728735134    0.5470117826    0.9931645032         -0.0042
C2486      C    0.0609074473    0.5419289496    0.0024289538         -0.0042
C2487      C    0.1114644359    0.5352113697    0.9795918838         -0.0042
C2488      C    0.0982927122    0.5437763478    0.9814905842         -0.0042
C2489      C    0.1368014942    0.5315221551    0.9685040025         -0.0042
C2490      C    0.1238761121    0.5400093695    0.9703179981         -0.0042
C2491      C    0.0930853872    0.4412662566    0.0421321662         -0.0042
C2492      C    0.0972240409    0.5580036665    0.9734612871         -0.0042
C2493      C    0.0989120065    0.4396614496    0.0576574917         -0.0042
C2494      C    0.0999662529    0.4259460816    0.0645353134         -0.0042
C2495      C    0.0952156770    0.4138059614    0.0559552238         -0.0042
C2496      C    0.0893979001    0.4153657542    0.0404850284         -0.0042
C2497      C    0.0883316943    0.4290630280    0.0335621640         -0.0042
C2498      C    0.0908131742    0.5590487352    0.9581314918         -0.0042
C2499      C    0.0898187789    0.5724612050    0.9505443731         -0.0042
C2500      C    0.0951869736    0.5848559670    0.9582268293         -0.0042
C2501      C    0.1015773155    0.5838540591    0.9735138758         -0.0042
C2502      C    0.1026098420    0.5704574321    0.9811377003         -0.0042
H2503      H    0.0668402012    0.4484626312    0.0518570791         -0.0042
H2504      H    0.0419144867    0.4864566299    0.0435914332         -0.0042
H2505      H    0.0442493769    0.4629586158    0.0554545139         -0.0042
H2506      H    0.0396092298    0.5299672028    0.0205748487         -0.0042
H2507      H    0.0406323158    0.5068584762    0.0331876674         -0.0042
H2508      H    0.1394548940    0.4518543889    0.0125858268         -0.0042
H2509      H    0.1188517356    0.4425048062    0.0284735946         -0.0042
H2510      H    0.1505435995    0.4707052627    0.9962058452         -0.0042
H2511      H    0.1617598011    0.4895411644    0.9796112946         -0.0042
H2512      H    0.1601956839    0.5132516841    0.9668599314         -0.0042
H2513      H    0.0716336648    0.5575661009    0.9877853706         -0.0042
H2514      H    0.0509237202    0.5486314561    0.0038936062         -0.0042
H2515      H    0.1461222320    0.5355528705    0.9613180427         -0.0042
H2516      H    0.1237443713    0.5503853392    0.9643785431         -0.0042
H2517      H    0.1026167226    0.4490068299    0.0643788766         -0.0042
H2518      H    0.1044524858    0.4247225120    0.0765163439         -0.0042
H2520      H    0.0857221687    0.4059665462    0.0338549557         -0.0042
H2521      H    0.0838135905    0.4301799249    0.0215717465         -0.0042
H2522      H    0.0866218009    0.5494971025    0.9521043195         -0.0042
H2523      H    0.0848818980    0.5732530427    0.9387144903         -0.0042
H2525      H    0.1057285193    0.5934563466    0.9794457376         -0.0042
H2526      H    0.1075813215    0.5697632977    0.9929740166         -0.0042
C2377      C    0.2338446738    0.2222272119    0.9670490811         -0.0042
C2378      C    0.2231618819    0.2189125984    0.9790643212         -0.0042
C2379      C    0.2145160441    0.2302653350    0.9860092843         -0.0042
C2380      C    0.2167281680    0.2446777957    0.9807772674         -0.0042
C2381      C    0.2275535931    0.2474501519    0.9687129590         -0.0042
C2382      C    0.2359496514    0.2363299880    0.9619911887         -0.0042
C2383      C    0.2075391988    0.2564633651    0.9882341768         -0.0042
C2384      C    0.1969730007    0.2528817785    0.0003712902         -0.0042
C2385      C    0.1950865759    0.2383773536    0.0052665334         -0.0042
C2386      C    0.2037667718    0.2271644942    0.9981315878         -0.0042
C2387      C    0.2210413205    0.2045132690    0.9842092098         -0.0042
C2388      C    0.2102719843    0.2013940724    0.9962475370         -0.0042
C2389      C    0.2016788374    0.2127140497    0.0031974351         -0.0042
C2390      C    0.1844029048    0.2350607728    0.0174275943         -0.0042
C2391      C    0.1823855131    0.2206290907    0.0223833710         -0.0042
C2392      C    0.1909685402    0.2094979812    0.0152996986         -0.0042
C2393      C    0.1757183843    0.2461488920    0.0246865861         -0.0042
C2394      C    0.1776296510    0.2605802468    0.0198186719         -0.0042
C2395      C    0.1882225220    0.2639213108    0.0076564388         -0.0042
C2396      C    0.1900711589    0.2783989125    0.0027663324         -0.0042
C2397      C    0.2004569705    0.2818041442    0.9907671447         -0.0042
C2398      C    0.2090639226    0.2710405662    0.9835914339         -0.0042
C2399      C    0.1888418534    0.1950763548    0.0203665612         -0.0042
C2400      C    0.1973315444    0.1840265653    0.0134104692         -0.0042
C2401      C    0.2078950480    0.1871100794    0.0015459138         -0.0042
C2402      C    0.1782685040    0.1918417872    0.0323416060         -0.0042
C2403      C    0.1697377164    0.2028169668    0.0394479670         -0.0042
C2404      C    0.1717647944    0.2172711007    0.0344874122         -0.0042
C2405      C    0.1631618565    0.2283202534    0.0416969747         -0.0042
C2406      C    0.1651170564    0.2427958819    0.0368307961         -0.0042
C2407      C    0.1591855615    0.1995433980    0.0514637884         -0.0042
C2408      C    0.1506748174    0.2104781939    0.0585976353         -0.0042
C2409      C    0.1525877210    0.2248555911    0.0538179429         -0.0042
C2410      C    0.1690032171    0.2717292216    0.0270885207         -0.0042
C2411      C    0.1711351508    0.2860673905    0.0219096311         -0.0042
C2412      C    0.1815208423    0.2893226351    0.0099141404         -0.0042
C2413      C    0.1564619528    0.2538529619    0.0441762774         -0.0042
C2414      C    0.1584587835    0.2683584065    0.0393255460         -0.0042
C2415      C    0.1440914324    0.2358049607    0.0609931458         -0.0042
C2416      C    0.1459961404    0.2501028179    0.0562826209         -0.0042
C2417      C    0.2301607792    0.1927108895    0.9770540607         -0.0042
C2418      C    0.1496441989    0.2800082614    0.0471604332         -0.0042
C2419      C    0.2249825428    0.1855414201    0.9633106926         -0.0042
C2420      C    0.2336026712    0.1744137663    0.9566032004         -0.0042
C2421      C    0.2473980803    0.1704112094    0.9635781197         -0.0042
C2422      C    0.2525957660    0.1775360421    0.9772690744         -0.0042
C2423      C    0.2440046555    0.1886654656    0.9840171883         -0.0042
C2424      C    0.1556078450    0.2871570437    0.0605620868         -0.0042
C2425      C    0.1472922004    0.2981333276    0.0679686047         -0.0042
C2426      C    0.1330341059    0.3020204913    0.0620210110         -0.0042
C2427      C    0.1270582483    0.2949212093    0.0486568719         -0.0042
C2428      C    0.1353304092    0.2839251590    0.0412240996         -0.0042
H2429      H    0.2406908101    0.2139789350    0.9614135067         -0.0042
H2430      H    0.2298063106    0.2581073032    0.9642003154         -0.0042
H2431      H    0.2442081249    0.2386763199    0.9527583294         -0.0042
H2432      H    0.2019568720    0.2928754148    0.9868947726         -0.0042
H2433      H    0.2168200636    0.2744914745    0.9744149313         -0.0042
H2434      H    0.1958210601    0.1729305981    0.0171754855         -0.0042
H2435      H    0.2141682396    0.1781314546    0.9965721477         -0.0042
H2436      H    0.1766950180    0.1807532978    0.0361534428         -0.0042
H2437      H    0.1575295466    0.1885095927    0.0553706581         -0.0042
H2438      H    0.1425930688    0.2076918440    0.0678668891         -0.0042
H2439      H    0.1648025630    0.2949304538    0.0270523119         -0.0042
H2440      H    0.1828701213    0.3004591079    0.0062166996         -0.0042
H2441      H    0.1359423863    0.2333145402    0.0703085882         -0.0042
H2442      H    0.1391475985    0.2581752353    0.0622338516         -0.0042
H2443      H    0.2143122170    0.1885743653    0.9578395313         -0.0042
H2444      H    0.2296021082    0.1688981631    0.9459951518         -0.0042
H2446      H    0.2632729384    0.1744338367    0.9826572734         -0.0042
H2447      H    0.2481092056    0.1941301455    0.9946246437         -0.0042
H2448      H    0.1666491167    0.2842129609    0.0652363881         -0.0042
H2449      H    0.1518985123    0.3036329366    0.0783127580         -0.0042
H2451      H    0.1160206742    0.2979404330    0.0440666733         -0.0042
H2452      H    0.1306255820    0.2784688554    0.0308838971         -0.0042
C2303      C    0.5535015866    0.1651554428    0.5650600824         -0.0042
C2304      C    0.5439632170    0.1545829135    0.5718465397         -0.0042
C2305      C    0.5279904392    0.1568174124    0.5717653625         -0.0042
C2306      C    0.5219050155    0.1695632088    0.5648861623         -0.0042
C2307      C    0.5319176032    0.1798265410    0.5582377500         -0.0042
C2308      C    0.5474835148    0.1775827949    0.5583577252         -0.0042
C2309      C    0.5050853423    0.1717200758    0.5649291386         -0.0042
C2310      C    0.4957494963    0.1610063151    0.5719335725         -0.0042
C2311      C    0.5022428170    0.1484355096    0.5786748027         -0.0042
C2312      C    0.5182223152    0.1463497053    0.5785709806         -0.0042
C2313      C    0.5501340706    0.1419144225    0.5786850521         -0.0042
C2314      C    0.5404002378    0.1314308240    0.5854113245         -0.0042
C2315      C    0.5244808462    0.1336730669    0.5853646314         -0.0042
C2316      C    0.4926448778    0.1378431782    0.5855910242         -0.0042
C2317      C    0.4989812015    0.1252377761    0.5923132176         -0.0042
C2318      C    0.5148229756    0.1231462145    0.5921947915         -0.0042
C2319      C    0.4766948811    0.1398182678    0.5858308765         -0.0042
C2320      C    0.4702549924    0.1523467609    0.5791408779         -0.0042
C2321      C    0.4797793177    0.1629010451    0.5721788178         -0.0042
C2322      C    0.4732778309    0.1754277677    0.5654316930         -0.0042
C2323      C    0.4825601422    0.1858812789    0.5585106715         -0.0042
C2324      C    0.4982089689    0.1840895116    0.5582395389         -0.0042
C2325      C    0.5210371558    0.1104668323    0.5989661681         -0.0042
C2326      C    0.5367123595    0.1083622650    0.5989027724         -0.0042
C2327      C    0.5462674149    0.1186701866    0.5922496760         -0.0042
C2328      C    0.5115313310    0.1000268238    0.6057466550         -0.0042
C2329      C    0.4958178295    0.1020319588    0.6059423788         -0.0042
C2330      C    0.4894745959    0.1146606825    0.5992151755         -0.0042
C2331      C    0.4736229939    0.1166634797    0.5994550574         -0.0042
C2332      C    0.4671806420    0.1292520312    0.5927758760         -0.0042
C2333      C    0.4863347309    0.0915711015    0.6127769490         -0.0042
C2334      C    0.4706496491    0.0935552646    0.6130147400         -0.0042
C2335      C    0.4642104504    0.1060338294    0.6064158498         -0.0042
C2336      C    0.4542966431    0.1544019394    0.5794021362         -0.0042
C2337      C    0.4481880570    0.1670360996    0.5725518267         -0.0042
C2338      C    0.4575692465    0.1773773909    0.5656671844         -0.0042
C2339      C    0.4512343498    0.1312117336    0.5931122814         -0.0042
C2340      C    0.4447920847    0.1438464735    0.5864583102         -0.0042
C2341      C    0.4485076805    0.1080327823    0.6066934777         -0.0042
C2342      C    0.4420879461    0.1204385827    0.6001701348         -0.0042
C2343      C    0.5667959934    0.1396650274    0.5788840618         -0.0042
C2344      C    0.4281448487    0.1460888001    0.5870298899         -0.0042
C2345      C    0.5739947185    0.1327850070    0.5659971384         -0.0042
C2346      C    0.5897021196    0.1306731774    0.5662286627         -0.0042
C2347      C    0.5982638636    0.1354139246    0.5793014111         -0.0042
C2348      C    0.5911290858    0.1422791846    0.5921600114         -0.0042
C2349      C    0.5754221317    0.1444054077    0.5919768169         -0.0042
C2350      C    0.4216004220    0.1534831558    0.5999581040         -0.0042
C2351      C    0.4058987064    0.1555861812    0.6005139014         -0.0042
C2352      C    0.3966952463    0.1503466517    0.5881797850         -0.0042
C2353      C    0.4031832302    0.1429769936    0.5752687060         -0.0042
C2354      C    0.4188814198    0.1408354309    0.5746750607         -0.0042
H2355      H    0.5657092437    0.1639547351    0.5648393488         -0.0042
H2356      H    0.5280762271    0.1897132420    0.5528458726         -0.0042
H2357      H    0.5549790001    0.1855883263    0.5532086402         -0.0042
H2358      H    0.4776980794    0.1955304589    0.5532702774         -0.0042
H2359      H    0.5046219344    0.1925985905    0.5526786112         -0.0042
H2360      H    0.5416286584    0.0987012156    0.6040485379         -0.0042
H2361      H    0.5583265056    0.1164888246    0.5925304994         -0.0042
H2362      H    0.5163832169    0.0903264818    0.6109050881         -0.0042
H2363      H    0.4910582238    0.0818486048    0.6179720344         -0.0042
H2364      H    0.4635461917    0.0853274305    0.6183700868         -0.0042
H2365      H    0.4360987620    0.1690738867    0.5724210287         -0.0042
H2366      H    0.4524954204    0.1869601879    0.5605026534         -0.0042
H2367      H    0.4411440937    0.0999778712    0.6119953273         -0.0042
H2368      H    0.4298659846    0.1214683224    0.6007094683         -0.0042
H2369      H    0.5674461750    0.1290806419    0.5558318213         -0.0042
H2370      H    0.5952440127    0.1253740544    0.5562760525         -0.0042
H2372      H    0.5977627038    0.1459463484    0.6022698061         -0.0042
H2373      H    0.5699806757    0.1497312979    0.6019852579         -0.0042
H2374      H    0.4286548148    0.1575814212    0.6095558628         -0.0042
H2375      H    0.4008616123    0.1612819995    0.6104980569         -0.0042
H2377      H    0.3960460514    0.1389267217    0.5657307583         -0.0042
H2378      H    0.4238252682    0.1351101628    0.5646421180         -0.0042
C2229      C    0.2954535723    0.1336562326    0.6848980787         -0.0042
C2230      C    0.3058418739    0.1365572327    0.6973245861         -0.0042
C2231      C    0.3013297176    0.1341798059    0.7134622433         -0.0042
C2232      C    0.2865391832    0.1289398462    0.7168198427         -0.0042
C2233      C    0.2765512610    0.1261942418    0.7039704076         -0.0042
C2234      C    0.2810215052    0.1285376540    0.6882598642         -0.0042
C2235      C    0.2820050454    0.1265214859    0.7338620890         -0.0042
C2236      C    0.2925916887    0.1296272741    0.7461392160         -0.0042
C2237      C    0.3072417118    0.1348377325    0.7423138477         -0.0042
C2238      C    0.3115802236    0.1370747540    0.7261155870         -0.0042
C2239      C    0.3205596056    0.1417864056    0.6938616763         -0.0042
C2240      C    0.3308223455    0.1446150186    0.7064667253         -0.0042
C2241      C    0.3263133770    0.1422777510    0.7225550058         -0.0042
C2242      C    0.3176568897    0.1378401672    0.7548286826         -0.0042
C2243      C    0.3323190150    0.1430032296    0.7511655904         -0.0042
C2244      C    0.3366429427    0.1452039945    0.7351069904         -0.0042
C2245      C    0.3134522122    0.1357118452    0.7710362409         -0.0042
C2246      C    0.2988590374    0.1305491861    0.7748216456         -0.0042
C2247      C    0.2884679640    0.1274890073    0.7623786599         -0.0042
C2248      C    0.2738617539    0.1222657916    0.7662168559         -0.0042
C2249      C    0.2635463078    0.1191876807    0.7540433008         -0.0042
C2250      C    0.2675165331    0.1212650138    0.7381166465         -0.0042
C2251      C    0.3513703471    0.1503797512    0.7315881712         -0.0042
C2252      C    0.3556910474    0.1525996819    0.7157129959         -0.0042
C2253      C    0.3455936947    0.1497811574    0.7033278102         -0.0042
C2254      C    0.3616253769    0.1532995991    0.7439634078         -0.0042
C2255      C    0.3574171219    0.1511755809    0.7599155190         -0.0042
C2256      C    0.3427293641    0.1460102820    0.7635818414         -0.0042
C2257      C    0.3385095340    0.1439020600    0.7796846875         -0.0042
C2258      C    0.3238551167    0.1387569987    0.7834671240         -0.0042
C2259      C    0.3677029066    0.1541437295    0.7722802256         -0.0042
C2260      C    0.3635249661    0.1520583715    0.7882136911         -0.0042
C2261      C    0.3489937564    0.1469688127    0.7920218978         -0.0042
C2262      C    0.2945727803    0.1284496329    0.7910317807         -0.0042
C2263      C    0.2798977776    0.1232154596    0.7944327087         -0.0042
C2264      C    0.2697160548    0.1201696677    0.7821784088         -0.0042
C2265      C    0.3196777031    0.1367119431    0.7996910714         -0.0042
C2266      C    0.3049783551    0.1315955820    0.8034723823         -0.0042
C2267      C    0.3448025639    0.1449176458    0.8079792395         -0.0042
C2268      C    0.3303577682    0.1398873656    0.8117908584         -0.0042
C2269      C    0.3251949673    0.1443783945    0.6770391445         -0.0042
C2270      C    0.3004388366    0.1296820742    0.8204264758         -0.0042
C2271      C    0.3318520292    0.1332637930    0.6680593667         -0.0042
C2272      C    0.3362177711    0.1357471102    0.6522077717         -0.0042
C2273      C    0.3339569877    0.1493097048    0.6452761583         -0.0042
C2274      C    0.3273207879    0.1604078303    0.6541866398         -0.0042
C2275      C    0.3229456462    0.1579690876    0.6700451090         -0.0042
C2276      C    0.2933442152    0.1410131462    0.8286762303         -0.0042
C2277      C    0.2890767553    0.1392212884    0.8446720318         -0.0042
C2278      C    0.2918483030    0.1261317602    0.8524663174         -0.0042
C2279      C    0.2989115580    0.1148099719    0.8442747724         -0.0042
C2280      C    0.3032141442    0.1165625436    0.8282802824         -0.0042
H2281      H    0.2983458997    0.1352965385    0.6724471754         -0.0042
H2282      H    0.2651928459    0.1222249712    0.7056599259         -0.0042
H2283      H    0.2731917723    0.1263767225    0.6785676340         -0.0042
H2284      H    0.2523105062    0.1151503350    0.7568414837         -0.0042
H2285      H    0.2589711871    0.1186357507    0.7293969793         -0.0042
H2286      H    0.3669359441    0.1565611077    0.7128426008         -0.0042
H2287      H    0.3495362471    0.1516990062    0.6912479104         -0.0042
H2288      H    0.3729034974    0.1572560209    0.7411666205         -0.0042
H2289      H    0.3789904382    0.1581081423    0.7696252565         -0.0042
H2290      H    0.3716615831    0.1544334384    0.7975695399         -0.0042
H2291      H    0.2761164252    0.1214041557    0.8065901137         -0.0042
H2292      H    0.2585283718    0.1161548202    0.7852171641         -0.0042
H2293      H    0.3527186222    0.1472274693    0.8175708711         -0.0042
H2294      H    0.3276760821    0.1385004551    0.8243382428         -0.0042
H2295      H    0.3336435635    0.1227329298    0.6733394393         -0.0042
H2296      H    0.3413417811    0.1271623918    0.6452890751         -0.0042
H2298      H    0.3255731719    0.1708986124    0.6488132088         -0.0042
H2299      H    0.3178140014    0.1666231373    0.6768676670         -0.0042
H2300      H    0.2911509595    0.1511841097    0.8227188218         -0.0042
H2301      H    0.2836152525    0.1479727262    0.8510274630         -0.0042
H2303      H    0.3010505283    0.1046847604    0.8503226397         -0.0042
H2304      H    0.3086878339    0.1077487643    0.8220152603         -0.0042
C2155      C    0.0529179572    0.3374149817    0.4552757962         -0.0042
C2156      C    0.0436181859    0.3464000973    0.4458278342         -0.0042
C2157      C    0.0276205735    0.3443512115    0.4461443074         -0.0042
C2158      C    0.0212721936    0.3333767797    0.4559117157         -0.0042
C2159      C    0.0310520285    0.3246614798    0.4651573983         -0.0042
C2160      C    0.0466435968    0.3267143169    0.4647926251         -0.0042
C2161      C    0.0044307993    0.3313841645    0.4560707739         -0.0042
C2162      C    0.9953387229    0.3404611012    0.4463792325         -0.0042
C2163      C    0.0020905847    0.3512902904    0.4367982164         -0.0042
C2164      C    0.0180901444    0.3532319165    0.4366992833         -0.0042
C2165      C    0.0500503919    0.3573069037    0.4361211221         -0.0042
C2166      C    0.0405531583    0.3662189942    0.4267500985         -0.0042
C2167      C    0.0246093839    0.3641551760    0.4270359958         -0.0042
C2168      C    0.9927335872    0.3602687101    0.4272177033         -0.0042
C2169      C    0.9993285940    0.3711365700    0.4176434107         -0.0042
C2170      C    0.0151902922    0.3730877362    0.4175544879         -0.0042
C2171      C    0.9767670480    0.3584070560    0.4271570276         -0.0042
C2172      C    0.9700699421    0.3476082898    0.4366786304         -0.0042
C2173      C    0.9793530596    0.3386767741    0.4462927889         -0.0042
C2174      C    0.9725934686    0.3278917851    0.4558683514         -0.0042
C2175      C    0.9816364967    0.3190517764    0.4654124458         -0.0042
C2176      C    0.9972992196    0.3207433086    0.4655433959         -0.0042
C2177      C    0.0216648640    0.3840185097    0.4079113165         -0.0042
C2178      C    0.0373610705    0.3859723106    0.4077621821         -0.0042
C2179      C    0.0466828572    0.3772177164    0.4170143690         -0.0042
C2180      C    0.0123959406    0.3928755162    0.3985029856         -0.0042
C2181      C    0.9966647741    0.3909919223    0.3984975746         -0.0042
C2182      C    0.9900624975    0.3801024108    0.4080824437         -0.0042
C2183      C    0.9741939998    0.3782130728    0.4080306541         -0.0042
C2184      C    0.9674938832    0.3673536161    0.4175566990         -0.0042
C2185      C    0.9874196951    0.3998580766    0.3890318050         -0.0042
C2186      C    0.9717178730    0.3979861557    0.3889807434         -0.0042
C2187      C    0.9650235266    0.3872174862    0.3984011231         -0.0042
C2188      C    0.9540944340    0.3456643189    0.4366169763         -0.0042
C2189      C    0.9477247053    0.3347929225    0.4463278429         -0.0042
C2190      C    0.9568685272    0.3260541434    0.4558104135         -0.0042
C2191      C    0.9515327899    0.3654872812    0.4173982006         -0.0042
C2192      C    0.9448326113    0.3545776995    0.4269112491         -0.0042
C2193      C    0.9493044846    0.3853231756    0.3983146032         -0.0042
C2194      C    0.9426316919    0.3746098840    0.4076435810         -0.0042
C2195      C    0.0667390840    0.3593415217    0.4357000284         -0.0042
C2196      C    0.9281711142    0.3523930804    0.4265802822         -0.0042
C2197      C    0.0738112337    0.3686155840    0.4466758866         -0.0042
C2198      C    0.0895444742    0.3705162304    0.4462383185         -0.0042
C2199      C    0.0982582150    0.3631784771    0.4348636074         -0.0042
C2200      C    0.0912497199    0.3539241106    0.4239129318         -0.0042
C2201      C    0.0755175326    0.3519996062    0.4243070351         -0.0042
C2202      C    0.9217476055    0.3426050077    0.4157060848         -0.0042
C2203      C    0.9060328516    0.3405527096    0.4153746786         -0.0042
C2204      C    0.8966954395    0.3482305508    0.4258921956         -0.0042
C2205      C    0.9030624967    0.3579914713    0.4367547458         -0.0042
C2206      C    0.9187735785    0.3600890363    0.4371133033         -0.0042
H2207      H    0.0651339360    0.3385444632    0.4554362414         -0.0042
H2208      H    0.0270055975    0.3161540205    0.4728058669         -0.0042
H2209      H    0.0539581906    0.3199109836    0.4719622346         -0.0042
H2210      H    0.9765748927    0.3107519975    0.4728333700         -0.0042
H2211      H    0.0035188230    0.3135407785    0.4732183550         -0.0042
H2212      H    0.0424755161    0.3943025273    0.4004315528         -0.0042
H2213      H    0.0587701836    0.3792015057    0.4164378973         -0.0042
H2214      H    0.0174466635    0.4012418821    0.3911488879         -0.0042
H2215      H    0.9923429094    0.4082394628    0.3816338766         -0.0042
H2216      H    0.9648012247    0.4049613490    0.3815624961         -0.0042
H2217      H    0.9356113270    0.3329186851    0.4467216487         -0.0042
H2218      H    0.9515972261    0.3178050739    0.4631365675         -0.0042
H2219      H    0.9421248190    0.3921426118    0.3909864949         -0.0042
H2220      H    0.9304086057    0.3735822307    0.4071297367         -0.0042
H2221      H    0.0671446916    0.3743381460    0.4555185141         -0.0042
H2222      H    0.0949884440    0.3776647731    0.4547182382         -0.0042
H2224      H    0.0980008707    0.3482484922    0.4151167904         -0.0042
H2225      H    0.0701745572    0.3448129282    0.4157814547         -0.0042
H2226      H    0.9289060009    0.3366106705    0.4075250373         -0.0042
H2227      H    0.9010893124    0.3330077823    0.4069734640         -0.0042
H2229      H    0.8958217199    0.3639274629    0.4448878764         -0.0042
H2230      H    0.9236234590    0.3676732289    0.4455527914         -0.0042
C2081      C    0.1108514323    0.3252947492    0.1981369787         -0.0042
C2082      C    0.1153607069    0.3385276593    0.2049714810         -0.0042
C2083      C    0.1186052021    0.3391220859    0.2216411688         -0.0042
C2084      C    0.1172867928    0.3264720831    0.2311063590         -0.0042
C2085      C    0.1127363341    0.3134819836    0.2237128438         -0.0042
C2086      C    0.1095867205    0.3129759452    0.2074507934         -0.0042
C2087      C    0.1207343558    0.3273194082    0.2486104718         -0.0042
C2088      C    0.1251184987    0.3407557677    0.2552228583         -0.0042
C2089      C    0.1263088024    0.3531356184    0.2453919345         -0.0042
C2090      C    0.1231012454    0.3523211873    0.2287421738         -0.0042
C2091      C    0.1166352796    0.3510838557    0.1954417736         -0.0042
C2092      C    0.1211879378    0.3642435043    0.2024934551         -0.0042
C2093      C    0.1243877103    0.3648445795    0.2191167284         -0.0042
C2094      C    0.1307551041    0.3664677252    0.2522953305         -0.0042
C2095      C    0.1320256356    0.3788849684    0.2426071579         -0.0042
C2096      C    0.1288715966    0.3780862131    0.2260910748         -0.0042
C2097      C    0.1339264799    0.3674399755    0.2688956166         -0.0042
C2098      C    0.1327107909    0.3551139031    0.2786654802         -0.0042
C2099      C    0.1283420412    0.3417940513    0.2718171808         -0.0042
C2100      C    0.1271858276    0.3294448326    0.2816408393         -0.0042
C2101      C    0.1229202580    0.3162591416    0.2750055025         -0.0042
C2102      C    0.1197430190    0.3151753626    0.2587628721         -0.0042
C2103      C    0.1301883690    0.3906050521    0.2165062062         -0.0042
C2104      C    0.1270510493    0.3898722322    0.2001587829         -0.0042
C2105      C    0.1226073416    0.3769122705    0.1932360035         -0.0042
C2106      C    0.1346097449    0.4037308816    0.2233516401         -0.0042
C2107      C    0.1377259237    0.4046207410    0.2397205296         -0.0042
C2108      C    0.1364463697    0.3921841673    0.2494227438         -0.0042
C2109      C    0.1395721775    0.3931215340    0.2659340973         -0.0042
C2110      C    0.1383119582    0.3807573213    0.2757277609         -0.0042
C2111      C    0.1421152803    0.4177904376    0.2465430392         -0.0042
C2112      C    0.1452064430    0.4187164133    0.2628817961         -0.0042
C2113      C    0.1439568542    0.4064807233    0.2726456165         -0.0042
C2114      C    0.1358192660    0.3560401035    0.2953034241         -0.0042
C2115      C    0.1345566845    0.3434936309    0.3047581145         -0.0042
C2116      C    0.1303069563    0.3303986365    0.2979912549         -0.0042
C2117      C    0.1414231056    0.3817969241    0.2923311750         -0.0042
C2118      C    0.1401160389    0.3694129605    0.3021432561         -0.0042
C2119      C    0.1470154712    0.4074214925    0.2890118762         -0.0042
C2120      C    0.1457519516    0.3952814201    0.2987413911         -0.0042
C2121      C    0.1131184186    0.3504697499    0.1780941708         -0.0042
C2122      C    0.1430841609    0.3704803938    0.3195692162         -0.0042
C2123      C    0.1245325235    0.3470344064    0.1670258742         -0.0042
C2124      C    0.1211804126    0.3464746422    0.1506804075         -0.0042
C2125      C    0.1064486746    0.3493363303    0.1453354971         -0.0042
C2126      C    0.0950456218    0.3527568966    0.1563315744         -0.0042
C2127      C    0.0983541812    0.3533340898    0.1726873702         -0.0042
C2128      C    0.1311314915    0.3734614648    0.3301611647         -0.0042
C2129      C    0.1339266113    0.3744869281    0.3465954615         -0.0042
C2130      C    0.1486279935    0.3725217163    0.3525058665         -0.0042
C2131      C    0.1605692178    0.3695403863    0.3419805756         -0.0042
C2132      C    0.1578261536    0.3685220790    0.3255322769         -0.0042
H2133      H    0.1082562974    0.3242968642    0.1855305865         -0.0042
H2134      H    0.1115012087    0.3035099135    0.2301709957         -0.0042
H2135      H    0.1061013437    0.3029104395    0.2020020336         -0.0042
H2136      H    0.1220185139    0.3067003717    0.2824215918         -0.0042
H2137      H    0.1165469574    0.3046500136    0.2545108560         -0.0042
H2138      H    0.1280120591    0.3993767362    0.1926729199         -0.0042
H2139      H    0.1203103645    0.3769606424    0.1805132691         -0.0042
H2140      H    0.1356047670    0.4132814188    0.2159185200         -0.0042
H2141      H    0.1431348768    0.4273974813    0.2392351690         -0.0042
H2142      H    0.1485713216    0.4290116231    0.2678909257         -0.0042
H2143      H    0.1368451767    0.3436444066    0.3174817279         -0.0042
H2144      H    0.1294534142    0.3209643364    0.3056058908         -0.0042
H2145      H    0.1503850363    0.4175940212    0.2943315037         -0.0042
H2146      H    0.1482310709    0.3965950757    0.3113445373         -0.0042
H2147      H    0.1359678145    0.3448068216    0.1710672869         -0.0042
H2148      H    0.1299916805    0.3438133768    0.1421547666         -0.0042
H2150      H    0.0836487204    0.3549675055    0.1521860239         -0.0042
H2151      H    0.0894575960    0.3559934770    0.1811286333         -0.0042
H2152      H    0.1197092149    0.3749904203    0.3256760444         -0.0042
H2153      H    0.1247001311    0.3767976251    0.3547535154         -0.0042
H2155      H    0.1719426488    0.3680225280    0.3465716759         -0.0042
H2156      H    0.1671325464    0.3662183370    0.3174514042         -0.0042
C2007      C    0.3068882740    0.2437834442    0.5340479716         -0.0042
C2008      C    0.2911451883    0.2422757080    0.5315402710         -0.0042
C2009      C    0.2831476279    0.2534027771    0.5233871124         -0.0042
C2010      C    0.2910671031    0.2657830159    0.5179054608         -0.0042
C2011      C    0.3068259009    0.2667935744    0.5207002835         -0.0042
C2012      C    0.3145572992    0.2559050539    0.5286612481         -0.0042
C2013      C    0.2824566078    0.2773680798    0.5093719336         -0.0042
C2014      C    0.2666317937    0.2756639460    0.5071148281         -0.0042
C2015      C    0.2591338491    0.2631574496    0.5127530622         -0.0042
C2016      C    0.2673241715    0.2521138241    0.5207986357         -0.0042
C2017      C    0.2833454391    0.2298985303    0.5370561291         -0.0042
C2018      C    0.2675736122    0.2285656811    0.5344168840         -0.0042
C2019      C    0.2595944543    0.2396721819    0.5263231961         -0.0042
C2020      C    0.2432757632    0.2616884095    0.5103140031         -0.0042
C2021      C    0.2356734912    0.2492452286    0.5158417105         -0.0042
C2022      C    0.2437865112    0.2382763268    0.5237987514         -0.0042
C2023      C    0.2349631800    0.2726492994    0.5023659123         -0.0042
C2024      C    0.2424396833    0.2850991954    0.4967872649         -0.0042
C2025      C    0.2582544673    0.2865758350    0.4991382607         -0.0042
C2026      C    0.2657232163    0.2990524577    0.4934787228         -0.0042
C2027      C    0.2813110329    0.3006004530    0.4957041527         -0.0042
C2028      C    0.2895761834    0.2899534498    0.5035126071         -0.0042
C2029      C    0.2360404872    0.2258555252    0.5292801420         -0.0042
C2030      C    0.2440184378    0.2149828644    0.5371881048         -0.0042
C2031      C    0.2595372901    0.2162969065    0.5397421539         -0.0042
C2032      C    0.2204022132    0.2244294532    0.5268213995         -0.0042
C2033      C    0.2122709203    0.2352675039    0.5189740472         -0.0042
C2034      C    0.2198862358    0.2477319400    0.5134448272         -0.0042
C2035      C    0.2116489791    0.2586560532    0.5055578847         -0.0042
C2036      C    0.2191557858    0.2711550686    0.5000031499         -0.0042
C2037      C    0.1966049528    0.2338198355    0.5165663675         -0.0042
C2038      C    0.1884555020    0.2446310998    0.5087632848         -0.0042
C2039      C    0.1958539395    0.2570554282    0.5032461525         -0.0042
C2040      C    0.2341608866    0.2961295856    0.4888740310         -0.0042
C2041      C    0.2419821667    0.3084419686    0.4833730310         -0.0042
C2042      C    0.2575395850    0.3098507415    0.4856515390         -0.0042
C2043      C    0.2107855853    0.2821159142    0.4921321023         -0.0042
C2044      C    0.2183080803    0.2946539774    0.4866106956         -0.0042
C2045      C    0.1876825286    0.2678942382    0.4954701598         -0.0042
C2046      C    0.1950078651    0.2802621442    0.4900057683         -0.0042
C2047      C    0.2916793188    0.2183704771    0.5456770923         -0.0042
C2048      C    0.2095776162    0.3062792997    0.4786280741         -0.0042
C2049      C    0.2983506766    0.2069797473    0.5371462244         -0.0042
C2050      C    0.3061897012    0.1961251357    0.5453117194         -0.0042
C2051      C    0.3073953902    0.1966022745    0.5619919932         -0.0042
C2052      C    0.3007673340    0.2079398534    0.5705304109         -0.0042
C2053      C    0.2929123920    0.2188122345    0.5624087393         -0.0042
C2054      C    0.2035912534    0.3176847998    0.4876892950         -0.0042
C2055      C    0.1953405452    0.3286430764    0.4801704968         -0.0042
C2056      C    0.1930612606    0.3282683918    0.4636108932         -0.0042
C2057      C    0.1990207584    0.3169176263    0.4545397382         -0.0042
C2058      C    0.2072650843    0.3059263778    0.4620150531         -0.0042
H2059      H    0.3134633788    0.2356276425    0.5401855192         -0.0042
H2060      H    0.3135169043    0.2758700769    0.5168810138         -0.0042
H2061      H    0.3266445752    0.2568841397    0.5307002099         -0.0042
H2062      H    0.2871727471    0.3101186954    0.4913887210         -0.0042
H2063      H    0.3015519977    0.2918982184    0.5047616220         -0.0042
H2064      H    0.2382305827    0.2054098377    0.5414521835         -0.0042
H2065      H    0.2651533384    0.2075484510    0.5459429232         -0.0042
H2066      H    0.2145452789    0.2148660967    0.5310500892         -0.0042
H2067      H    0.1906393551    0.2243205175    0.5207491892         -0.0042
H2068      H    0.1763540147    0.2432798878    0.5070463678         -0.0042
H2069      H    0.2361808711    0.3171197112    0.4772397614         -0.0042
H2070      H    0.2631954839    0.3194539239    0.4812649624         -0.0042
H2071      H    0.1755629238    0.2668215065    0.4936148846         -0.0042
H2072      H    0.1881521577    0.2883411856    0.4840752230         -0.0042
H2073      H    0.2974663228    0.2065305973    0.5242301676         -0.0042
H2074      H    0.3113404830    0.1873494916    0.5387175756         -0.0042
H2076      H    0.3017076434    0.2083022310    0.5834370825         -0.0042
H2077      H    0.2878085297    0.2275572391    0.5691106721         -0.0042
H2078      H    0.2053147060    0.3180558647    0.5005224785         -0.0042
H2079      H    0.1907183320    0.3374299787    0.4871735264         -0.0042
H2081      H    0.1972471884    0.3166408880    0.4417236476         -0.0042
H2082      H    0.2118392903    0.2971648310    0.4549131976         -0.0042
C1933      C    0.0498341059    0.6093257891    0.5879517357         -0.0042
C1934      C    0.0418891944    0.6224212485    0.5860646931         -0.0042
C1935      C    0.0257781166    0.6223933305    0.5871664789         -0.0042
C1936      C    0.0179668138    0.6092784965    0.5901479966         -0.0042
C1937      C    0.0264244392    0.5964502482    0.5919539989         -0.0042
C1938      C    0.0421342850    0.5965511261    0.5908633992         -0.0042
C1939      C    0.0010282503    0.6094695072    0.5912512129         -0.0042
C1940      C    0.9932952519    0.6227322748    0.5891817289         -0.0042
C1941      C    0.0014856900    0.6355903638    0.5862281607         -0.0042
C1942      C    0.0175878634    0.6354257357    0.5852519506         -0.0042
C1943      C    0.0497735540    0.6354407743    0.5830867647         -0.0042
C1944      C    0.0416241116    0.6484613923    0.5812489852         -0.0042
C1945      C    0.0255624102    0.6484288478    0.5823095963         -0.0042
C1946      C    0.9934784718    0.6487486201    0.5842311368         -0.0042
C1947      C    0.0015212667    0.6616545124    0.5813244156         -0.0042
C1948      C    0.0174895801    0.6615092802    0.5803791765         -0.0042
C1949      C    0.9774170053    0.6490516047    0.5851116633         -0.0042
C1950      C    0.9692836854    0.6362406481    0.5880247247         -0.0042
C1951      C    0.9772274308    0.6231149884    0.5900859559         -0.0042
C1952      C    0.9690368483    0.6102977745    0.5930606039         -0.0042
C1953      C    0.9767573352    0.5973101384    0.5951429713         -0.0042
C1954      C    0.9924923658    0.5968655183    0.5942647289         -0.0042
C1955      C    0.0254221269    0.6745145518    0.5774637606         -0.0042
C1956      C    0.0412256372    0.6744188279    0.5764890117         -0.0042
C1957      C    0.0492252348    0.6616073781    0.5783352364         -0.0042
C1958      C    0.0174868102    0.6874794466    0.5755349415         -0.0042
C1959      C    0.0016554937    0.6877107774    0.5764212741         -0.0042
C1960      C    0.9936021559    0.6747824568    0.5793257953         -0.0042
C1961      C    0.9776328320    0.6750464814    0.5801862593         -0.0042
C1962      C    0.9694861742    0.6621824006    0.5830694587         -0.0042
C1963      C    0.9937432090    0.7007074489    0.5744455324         -0.0042
C1964      C    0.9779412051    0.7009665585    0.5752957544         -0.0042
C1965      C    0.9698122039    0.6882279902    0.5781388211         -0.0042
C1966      C    0.9531990625    0.6364754118    0.5888593665         -0.0042
C1967      C    0.9453825715    0.6234766936    0.5918529690         -0.0042
C1968      C    0.9532177599    0.6105918048    0.5939270312         -0.0042
C1969      C    0.9534257618    0.6625264217    0.5838630637         -0.0042
C1970      C    0.9452698811    0.6496259579    0.5867070537         -0.0042
C1971      C    0.9539880749    0.6884866744    0.5789483084         -0.0042
C1972      C    0.9458866532    0.6758351456    0.5817416261         -0.0042
C1973      C    0.0665595265    0.6354252780    0.5818020040         -0.0042
C1974      C    0.9284577706    0.6498620795    0.5872614445         -0.0042
C1975      C    0.0755315496    0.6373397830    0.5955096042         -0.0042
C1976      C    0.0913520146    0.6373292946    0.5942539008         -0.0042
C1977      C    0.0982599202    0.6354103403    0.5793371728         -0.0042
C1978      C    0.0893549522    0.6334933882    0.5656542649         -0.0042
C1979      C    0.0735298304    0.6335038237    0.5668593043         -0.0042
C1980      C    0.9200394938    0.6473896042    0.5732722323         -0.0042
C1981      C    0.9041834160    0.6476282198    0.5737832597         -0.0042
C1982      C    0.8966891582    0.6503073878    0.5882351227         -0.0042
C1983      C    0.9050466697    0.6527688458    0.6022061404         -0.0042
C1984      C    0.9209079538    0.6525563288    0.6017441606         -0.0042
H1985      H    0.0620756354    0.6087910522    0.5872101715         -0.0042
H1986      H    0.0212340692    0.5861463075    0.5942225709         -0.0042
H1987      H    0.0484196380    0.5865964944    0.5922719568         -0.0042
H1988      H    0.9705943193    0.5874059485    0.5974591406         -0.0042
H1989      H    0.9976473446    0.5864640253    0.5960169680         -0.0042
H1990      H    0.0474492452    0.6843005490    0.5742605572         -0.0042
H1991      H    0.0614618135    0.6621548611    0.5774586981         -0.0042
H1992      H    0.0236530464    0.6974101202    0.5733145832         -0.0042
H1993      H    0.9997848125    0.7106860751    0.5722119111         -0.0042
H1994      H    0.9720689781    0.7111365858    0.5737217638         -0.0042
H1995      H    0.9331327860    0.6231102249    0.5926380123         -0.0042
H1996      H    0.9468534768    0.6007990861    0.5962165781         -0.0042
H1997      H    0.9478328257    0.6985132351    0.5773965882         -0.0042
H1998      H    0.9336431377    0.6766218021    0.5822390698         -0.0042
H1999      H    0.0702704671    0.6388345527    0.6071026990         -0.0042
H2000      H    0.0982612340    0.6387967130    0.6048375336         -0.0042
H2002      H    0.0947092318    0.6320068814    0.5541167590         -0.0042
H2003      H    0.0667118985    0.6320136961    0.5562027539         -0.0042
H2004      H    0.9257618624    0.6452990123    0.5620314059         -0.0042
H2005      H    0.8977014561    0.6457303468    0.5629826947         -0.0042
H2007      H    0.8992312698    0.6548419273    0.6133834856         -0.0042
H2008      H    0.9273057879    0.6544804633    0.6126110541         -0.0042
C1859      C    0.1471147237    0.6458568244    0.8280561186         -0.0042
C1860      C    0.1360037630    0.6436189413    0.8161681063         -0.0042
C1861      C    0.1406591226    0.6417399821    0.7999948254         -0.0042
C1862      C    0.1563189120    0.6421234969    0.7960657761         -0.0042
C1863      C    0.1670101155    0.6443915853    0.8083894320         -0.0042
C1864      C    0.1623947867    0.6462186387    0.8241376179         -0.0042
C1865      C    0.1609848186    0.6401384118    0.7789942222         -0.0042
C1866      C    0.1496112891    0.6380275156    0.7672516332         -0.0042
C1867      C    0.1341065648    0.6377086189    0.7716388886         -0.0042
C1868      C    0.1296706216    0.6395282730    0.7878720847         -0.0042
C1869      C    0.1204184290    0.6432614022    0.8201978145         -0.0042
C1870      C    0.1094475412    0.6409884748    0.8081294517         -0.0042
C1871      C    0.1140848128    0.6391493283    0.7920022088         -0.0042
C1872      C    0.1229263586    0.6355462584    0.7596564633         -0.0042
C1873      C    0.1074253477    0.6351656839    0.7638869897         -0.0042
C1874      C    0.1030136976    0.6369456572    0.7799831997         -0.0042
C1875      C    0.1271940888    0.6337759303    0.7434142758         -0.0042
C1876      C    0.1426279791    0.6341209959    0.7390667637         -0.0042
C1877      C    0.1538078067    0.6362154279    0.7509841244         -0.0042
C1878      C    0.1692771700    0.6365053410    0.7465881811         -0.0042
C1879      C    0.1803870018    0.6385325105    0.7582441367         -0.0042
C1880      C    0.1763475473    0.6403189935    0.7741948346         -0.0042
C1881      C    0.0874432108    0.6365403324    0.7840736198         -0.0042
C1882      C    0.0830212093    0.6383235018    0.7999855031         -0.0042
C1883      C    0.0938294871    0.6405258523    0.8118456644         -0.0042
C1884      C    0.0764484267    0.6343733627    0.7722258733         -0.0042
C1885      C    0.0807251708    0.6326299735    0.7562372733         -0.0042
C1886      C    0.0962505659    0.6330177047    0.7520019485         -0.0042
C1887      C    0.1005269837    0.6312802846    0.7358612526         -0.0042
C1888      C    0.1160099595    0.6316643798    0.7315110151         -0.0042
C1889      C    0.0696824581    0.6304967860    0.7443981393         -0.0042
C1890      C    0.0739159039    0.6287791957    0.7284269930         -0.0042
C1891      C    0.0892619496    0.6291663990    0.7240550316         -0.0042
C1892      C    0.1469586995    0.6324069862    0.7228140075         -0.0042
C1893      C    0.1625086588    0.6327493977    0.7188493373         -0.0042
C1894      C    0.1734846161    0.6347635769    0.7305921994         -0.0042
C1895      C    0.1202177161    0.6299588844    0.7152475258         -0.0042
C1896      C    0.1357301422    0.6303859944    0.7108929384 0.12380000000000001
C1897      C    0.0934927299    0.6274830177    0.7080563891         -0.0042
C1898      C    0.1087347509    0.6278922949    0.7036821010         -0.0042
C1899      C    0.1155812378    0.6453495252    0.8370433849         -0.0042
C1900      C    0.1401947785    0.6288730340    0.6938670496         -0.0042
C1901      C    0.1143248054    0.6334635820    0.8473559840         -0.0042
C1902      C    0.1097517861    0.6354694642    0.8632257650         -0.0042
C1903      C    0.1064235056    0.6493226970    0.8688474722         -0.0042
C1904      C    0.1076696183    0.6611917043    0.8586066282         -0.0042
C1905      C    0.1122326375    0.6592295643    0.8427256781         -0.0042
C1906      C    0.1417852114    0.6411811223    0.6842328138         -0.0042
C1907      C    0.1459776954    0.6397603215    0.6681692288         -0.0042
C1908      C    0.1486156186    0.6260785188    0.6616852829         -0.0042
C1909      C    0.1470484585    0.6137856011    0.6712586648         -0.0042
C1910      C    0.1428399064    0.6151572964    0.6873266124         -0.0042
H1911      H    0.1441443795    0.6473465982    0.8405098797         -0.0042
H1912      H    0.1790395485    0.6448117109    0.8062521699         -0.0042
H1913      H    0.1707682045    0.6479564624    0.8334202631         -0.0042
H1914      H    0.1922993402    0.6387508447    0.7550177493         -0.0042
H1915      H    0.1855436725    0.6418097927    0.7824989917         -0.0042
H1916      H    0.0711340356    0.6380383558    0.8032906430         -0.0042
H1917      H    0.0897683837    0.6418500647    0.8239798034         -0.0042
H1918      H    0.0645306297    0.6340650981    0.7754604736         -0.0042
H1919      H    0.0577485406    0.6301803322    0.7474916092         -0.0042
H1920      H    0.0651818054    0.6271526447    0.7194825697         -0.0042
H1921      H    0.1663752892    0.6314566289    0.7066404014         -0.0042
H1922      H    0.1853363630    0.6349643222    0.7271278868         -0.0042
H1923      H    0.0849813616    0.6258582480    0.6988675110         -0.0042
H1924      H    0.1114038952    0.6265486451    0.6911259478         -0.0042
H1925      H    0.1168789048    0.6227023502    0.8430949958         -0.0042
H1926      H    0.1087971799    0.6262941006    0.8711727658         -0.0042
H1928      H    0.1050944826    0.6719078819    0.8629668551         -0.0042
H1929      H    0.1131684093    0.6684794443    0.8348680914         -0.0042
H1930      H    0.1397690166    0.6518185783    0.6891697977         -0.0042
H1931      H    0.1471900260    0.6492610797    0.6607456669         -0.0042
H1933      H    0.1490929559    0.6032024764    0.6662241441         -0.0042
H1934      H    0.1416395046    0.6055872298    0.6946661982         -0.0042
C1785      C    0.1755592838    0.4664828898    0.4537204360         -0.0042
C1786      C    0.1685554720    0.4686787421    0.4686988968         -0.0042
C1787      C    0.1691150178    0.4826148502    0.4758152597         -0.0042
C1788      C    0.1766485066    0.4940512224    0.4677931294         -0.0042
C1789      C    0.1834841962    0.4913179534    0.4528193181         -0.0042
C1790      C    0.1828995361    0.4777018042    0.4459460633         -0.0042
C1791      C    0.1771246224    0.5086199143    0.4754757277         -0.0042
C1792      C    0.1701184474    0.5105290274    0.4905826497         -0.0042
C1793      C    0.1627103394    0.4988584986    0.4982086992         -0.0042
C1794      C    0.1621943529    0.4850273688    0.4908782961         -0.0042
C1795      C    0.1610789372    0.4572103034    0.4766103155         -0.0042
C1796      C    0.1541082837    0.4596165229    0.4916020411         -0.0042
C1797      C    0.1546963100    0.4734992149    0.4987139271         -0.0042
C1798      C    0.1557469148    0.5010529500    0.5133266290         -0.0042
C1799      C    0.1482846840    0.4895076132    0.5210346071         -0.0042
C1800      C    0.1477442931    0.4757934239    0.5137663800         -0.0042
C1801      C    0.1562326636    0.5147779930    0.5207973549         -0.0042
C1802      C    0.1636325530    0.5263734058    0.5132026938         -0.0042
C1803      C    0.1705330014    0.5242433082    0.4981048359         -0.0042
C1804      C    0.1778979854    0.5359085560    0.4904987173         -0.0042
C1805      C    0.1847068416    0.5339323002    0.4756030756         -0.0042
C1806      C    0.1843437109    0.5205251537    0.4681787465         -0.0042
C1807      C    0.1402290113    0.4643086446    0.5216089337         -0.0042
C1808      C    0.1396891919    0.4507091423    0.5144745690         -0.0042
C1809      C    0.1465223473    0.4483696874    0.4997117159         -0.0042
C1810      C    0.1333439696    0.4665218554    0.5365051578         -0.0042
C1811      C    0.1338558984    0.4800761443    0.5438066443         -0.0042
C1812      C    0.1413359860    0.4916363288    0.5360876425         -0.0042
C1813      C    0.1418552444    0.5052888930    0.5434951017         -0.0042
C1814      C    0.1493140521    0.5169017761    0.5358824103         -0.0042
C1815      C    0.1269805765    0.4822454707    0.5587423563         -0.0042
C1816      C    0.1274967463    0.4957552351    0.5660712247         -0.0042
C1817      C    0.1348964279    0.5073030651    0.5585692067         -0.0042
C1818      C    0.1641998344    0.5401235489    0.5206573464         -0.0042
C1819      C    0.1716452992    0.5515336359    0.5127206517         -0.0042
C1820      C    0.1783799955    0.5494275223    0.4978537722         -0.0042
C1821      C    0.1498334887    0.5305858879    0.5434325359         -0.0042
C1822      C    0.1573460322    0.5422048020    0.5358179457         -0.0042
C1823      C    0.1354437613    0.5208185510    0.5659309887         -0.0042
C1824      C    0.1428168094    0.5323013271    0.5585105040         -0.0042
C1825      C    0.1606241788    0.4426598441    0.4692373376         -0.0042
C1826      C    0.1581721206    0.5564777461    0.5437790455         -0.0042
C1827      C    0.1487938177    0.4389213897    0.4587947992         -0.0042
C1828      C    0.1483943642    0.4251922678    0.4518739617         -0.0042
C1829      C    0.1597830097    0.4151646194    0.4553458831         -0.0042
C1830      C    0.1715919246    0.4188552108    0.4657405800         -0.0042
C1831      C    0.1720279289    0.4325720448    0.4726917256         -0.0042
C1832      C    0.1705413558    0.5598253385    0.5536807113         -0.0042
C1833      C    0.1713179639    0.5732781157    0.5612079567         -0.0042
C1834      C    0.1597864315    0.5834248675    0.5588628857         -0.0042
C1835      C    0.1474427480    0.5801259232    0.5489920359         -0.0042
C1836      C    0.1466127895    0.5666767086    0.5414552230         -0.0042
H1837      H    0.1754481864    0.4560898793    0.4478310281         -0.0042
H1838      H    0.1893778274    0.4994817920    0.4461022074         -0.0042
H1839      H    0.1882217694    0.4758170745    0.4344561162         -0.0042
H1840      H    0.1903717466    0.5428120512    0.4696360065         -0.0042
H1841      H    0.1898211172    0.5198358127    0.4566968229         -0.0042
H1842      H    0.1339721936    0.4418131134    0.5203464821         -0.0042
H1843      H    0.1457638575    0.4376158152    0.4947350829         -0.0042
H1844      H    0.1275922634    0.4576622041    0.5424379669         -0.0042
H1845      H    0.1212156186    0.4734723257    0.5647794914         -0.0042
H1846      H    0.1221103972    0.4971748361    0.5776205410         -0.0042
H1847      H    0.1723456733    0.5622155052    0.5178941485         -0.0042
H1848      H    0.1840038129    0.5584351840    0.4920843395         -0.0042
H1849      H    0.1301634628    0.5225264149    0.5774933180         -0.0042
H1850      H    0.1429289634    0.5425429109    0.5647307987         -0.0042
H1851      H    0.1399315180    0.4466230386    0.4560472958         -0.0042
H1852      H    0.1392690396    0.4223242419    0.4438116613         -0.0042
H1854      H    0.1804012290    0.4110903837    0.4684187945         -0.0042
H1855      H    0.1812133543    0.4353465509    0.4807330415         -0.0042
H1856      H    0.1795241111    0.5520250182    0.5555509051         -0.0042
H1857      H    0.1808587763    0.5758446548    0.5688527838         -0.0042
H1859      H    0.1385249607    0.5879895040    0.5471882905         -0.0042
H1860      H    0.1370135435    0.5641944883    0.5338343339         -0.0042
C1711      C    0.5502554118    0.8873216524    0.4194384296         -0.0042
C1712      C    0.5421355810    0.8749341588    0.4241962384         -0.0042
C1713      C    0.5260438109    0.8748645267    0.4228184928         -0.0042
C1714      C    0.5184264682    0.8871729515    0.4166985619         -0.0042
C1715      C    0.5270547013    0.8993110534    0.4120917383         -0.0042
C1716      C    0.5427446459    0.8993100375    0.4134682608         -0.0042
C1717      C    0.5015048943    0.8868948062    0.4153554338         -0.0042
C1718      C    0.4935923675    0.8743769310    0.4203345135         -0.0042
C1719      C    0.5015921027    0.8623115321    0.4263740878         -0.0042
C1720      C    0.5176789953    0.8625455999    0.4275839589         -0.0042
C1721      C    0.5498271022    0.8627177098    0.4302917361         -0.0042
C1722      C    0.5415043478    0.8503954468    0.4349801778         -0.0042
C1723      C    0.5254613951    0.8503378119    0.4336424992         -0.0042
C1724      C    0.4934076526    0.8498839717    0.4312529243         -0.0042
C1725      C    0.5012599141    0.8377639768    0.4372551763         -0.0042
C1726      C    0.5172132036    0.8379741363    0.4384368601         -0.0042
C1727      C    0.4773584876    0.8495325421    0.4301696348         -0.0042
C1728      C    0.4694147320    0.8615591615    0.4241817045         -0.0042
C1729      C    0.4775362908    0.8739431077    0.4192465630         -0.0042
C1730      C    0.4695362558    0.8859645481    0.4131959284         -0.0042
C1731      C    0.4774333379    0.8982111145    0.4082682851         -0.0042
C1732      C    0.4931577665    0.8987028387    0.4093102997         -0.0042
C1733      C    0.5249539808    0.8257594147    0.4444688070         -0.0042
C1734      C    0.5407415021    0.8259279308    0.4456878869         -0.0042
C1735      C    0.5489121869    0.8380451663    0.4410373052         -0.0042
C1736      C    0.5168446138    0.8135074181    0.4492371311         -0.0042
C1737      C    0.5010264566    0.8132233256    0.4481356357         -0.0042
C1738      C    0.4931638765    0.8253657361    0.4421301033         -0.0042
C1739      C    0.4772069864    0.8250555586    0.4410590076         -0.0042
C1740      C    0.4692500612    0.8371398720    0.4350876145         -0.0042
C1741      C    0.4929390695    0.8009490161    0.4529576659         -0.0042
C1742      C    0.4771493756    0.8006444218    0.4518984895         -0.0042
C1743      C    0.4692080909    0.8126135408    0.4459959600         -0.0042
C1744      C    0.4533425174    0.8612832945    0.4231269082         -0.0042
C1745      C    0.4457188460    0.8734759540    0.4170221895         -0.0042
C1746      C    0.4537293210    0.8856228595    0.4121287561         -0.0042
C1747      C    0.4532002113    0.8367648266    0.4340988885         -0.0042
C1748      C    0.4452339037    0.8488922155    0.4281571543         -0.0042
C1749      C    0.4533956841    0.8123172519    0.4449760956         -0.0042
C1750      C    0.4454802573    0.8242105419    0.4391430245         -0.0042
C1751      C    0.5665914607    0.8628598222    0.4318505165         -0.0042
C1752      C    0.4284302110    0.8486733097    0.4273633134         -0.0042
C1753      C    0.5757408920    0.8583228155    0.4190632514         -0.0042
C1754      C    0.5915402829    0.8584612447    0.4205771630         -0.0042
C1755      C    0.5982503091    0.8631215180    0.4348353117         -0.0042
C1756      C    0.5891683105    0.8676557604    0.4475990950         -0.0042
C1757      C    0.5733635223    0.8675270362    0.4461346067         -0.0042
C1758      C    0.4198366394    0.8538053656    0.4403056360         -0.0042
C1759      C    0.4039881466    0.8535855926    0.4395722262         -0.0042
C1760      C    0.3966764325    0.8482745491    0.4259352920         -0.0042
C1761      C    0.4052091083    0.8431571414    0.4130070702         -0.0042
C1762      C    0.4210632284    0.8433420522    0.4136987295         -0.0042
H1763      H    0.5624899835    0.8878998649    0.4202619874         -0.0042
H1764      H    0.5220154698    0.9089888597    0.4073730333         -0.0042
H1765      H    0.5491625426    0.9087297055    0.4098813731         -0.0042
H1766      H    0.4714177909    0.9074958935    0.4035786521         -0.0042
H1767      H    0.4984555963    0.9085019433    0.4052624714         -0.0042
H1768      H    0.5468191701    0.8166480370    0.4502876435         -0.0042
H1769      H    0.5611275438    0.8375911412    0.4422454561         -0.0042
H1770      H    0.5228644828    0.8041785341    0.4538393592         -0.0042
H1771      H    0.4988335893    0.7915766443    0.4575817805         -0.0042
H1772      H    0.4711396632    0.7910427331    0.4557049302         -0.0042
H1773      H    0.4334868894    0.8737704984    0.4159455041         -0.0042
H1774      H    0.4475108870    0.8948051303    0.4074875027         -0.0042
H1775      H    0.4471049548    0.8028535499    0.4487220914         -0.0042
H1776      H    0.4332372646    0.8234324410    0.4386168788         -0.0042
H1777      H    0.5706335413    0.8546968526    0.4079847528         -0.0042
H1778      H    0.5985866045    0.8549688778    0.4107012750         -0.0042
H1780      H    0.5943695619    0.8712624407    0.4586268913         -0.0042
H1781      H    0.5664076620    0.8710548123    0.4560781308         -0.0042
H1782      H    0.4254171184    0.8579436542    0.4509090856         -0.0042
H1783      H    0.3973707195    0.8575369577    0.4495674225         -0.0042
H1785      H    0.3995348837    0.8390486729    0.4024598804         -0.0042
H1786      H    0.4275972177    0.8393530067    0.4036432982         -0.0042
C1637      C    0.3491157553    0.8373210841    0.3132849935         -0.0042
C1638      C    0.3365921498    0.8452458094    0.3075359292         -0.0042
C1639      C    0.3342103452    0.8462798319    0.2907311904         -0.0042
C1640      C    0.3443902432    0.8393558738    0.2800460352         -0.0042
C1641      C    0.3567577001    0.8315461202    0.2863812343         -0.0042
C1642      C    0.3590174798    0.8305816193    0.3027818888         -0.0042
C1643      C    0.3417011543    0.8405792628    0.2624217438         -0.0042
C1644      C    0.3291201166    0.8486960673    0.2569346428         -0.0042
C1645      C    0.3192166033    0.8554451013    0.2679650377         -0.0042
C1646      C    0.3217274328    0.8542302544    0.2847176068         -0.0042
C1647      C    0.3265093802    0.8521184952    0.3182793828         -0.0042
C1648      C    0.3140112853    0.8599967837    0.3123012124         -0.0042
C1649      C    0.3116566010    0.8610563765    0.2955494933         -0.0042
C1650      C    0.3066710830    0.8634927093    0.2621696069         -0.0042
C1651      C    0.2966855505    0.8702413225    0.2730524374         -0.0042
C1652      C    0.2991492366    0.8690254966    0.2896675838         -0.0042
C1653      C    0.3040739320    0.8648377833    0.2454904950         -0.0042
C1654      C    0.3139565202    0.8581343281    0.2345305347         -0.0042
C1655      C    0.3264375051    0.8500557524    0.2402619498         -0.0042
C1656      C    0.3362939489    0.8433065829    0.2292375179         -0.0042
C1657      C    0.3486092682    0.8352950197    0.2347608771         -0.0042
C1658      C    0.3512990913    0.8339286177    0.2510750898         -0.0042
C1659      C    0.2890602984    0.8758356971    0.3004545562         -0.0042
C1660      C    0.2914693543    0.8746842329    0.3169094258         -0.0042
C1661      C    0.3037489178    0.8669039509    0.3227695185         -0.0042
C1662      C    0.2766777516    0.8837390003    0.2946943239         -0.0042
C1663      C    0.2741736708    0.8850219002    0.2782408075         -0.0042
C1664      C    0.2841799259    0.8782670342    0.2673430862         -0.0042
C1665      C    0.2816388177    0.8796011326    0.2507538308         -0.0042
C1666      C    0.2915819390    0.8729014843    0.2397722299         -0.0042
C1667      C    0.2617831172    0.8929737240    0.2725132223         -0.0042
C1668      C    0.2592711553    0.8942939483    0.2560974684         -0.0042
C1669      C    0.2691146283    0.8876768603    0.2451595613         -0.0042
C1670      C    0.3114394391    0.8594911373    0.2178178461         -0.0042
C1671      C    0.3215044995    0.8526061855    0.2071476713         -0.0042
C1672      C    0.3337404454    0.8446301991    0.2128093583         -0.0042
C1673      C    0.2889816742    0.8743340517    0.2231071401         -0.0042
C1674      C    0.2989738773    0.8676522543    0.2121118052         -0.0042
C1675      C    0.2666169566    0.8890326527    0.2287233135         -0.0042
C1676      C    0.2764021133    0.8824887704    0.2178330085         -0.0042
C1677      C    0.3290886136    0.8511337625    0.3357885576         -0.0042
C1678      C    0.2964811091    0.8693248304    0.1946615158         -0.0042
C1679      C    0.3227983113    0.8397161172    0.3445926616         -0.0042
C1680      C    0.3252435683    0.8388261480    0.3610982972         -0.0042
C1681      C    0.3339617174    0.8493113457    0.3688597514         -0.0042
C1682      C    0.3402524278    0.8606998472    0.3601232839         -0.0042
C1683      C    0.3378272770    0.8616314988    0.3436159856         -0.0042
C1684      C    0.3034785521    0.8806728849    0.1863486153         -0.0042
C1685      C    0.3011173705    0.8822665701    0.1698942897         -0.0042
C1686      C    0.2918016162    0.8725450361    0.1616914682         -0.0042
C1687      C    0.2848145576    0.8612145025    0.1699404059         -0.0042
C1688      C    0.2871318439    0.8595911920    0.1864018051         -0.0042
H1689      H    0.3514098444    0.8362270271    0.3259464201         -0.0042
H1690      H    0.3649009891    0.8260521761    0.2789740025         -0.0042
H1691      H    0.3685778680    0.8245489747    0.3074091308         -0.0042
H1692      H    0.3562386358    0.8300454855    0.2264133522         -0.0042
H1693      H    0.3610026799    0.8275675370    0.2544256042         -0.0042
H1694      H    0.2838327999    0.8798459117    0.3253102733         -0.0042
H1695      H    0.3050787661    0.8663692893    0.3356311939         -0.0042
H1696      H    0.2689848496    0.8889213323    0.3030439923         -0.0042
H1697      H    0.2540353220    0.8982017403    0.2807430249         -0.0042
H1698      H    0.2496256258    0.9005005861    0.2519488187         -0.0042
H1699      H    0.3200399180    0.8532918715    0.1943109653         -0.0042
H1700      H    0.3412512533    0.8394727920    0.2042747837         -0.0042
H1701      H    0.2570629679    0.8951957434    0.2242532584         -0.0042
H1702      H    0.2739700460    0.8838858754    0.2052306932         -0.0042
H1703      H    0.3160325853    0.8315555907    0.3386729658         -0.0042
H1704      H    0.3203947665    0.8300082952    0.3678752117         -0.0042
H1706      H    0.3469990852    0.8688074362    0.3661377705         -0.0042
H1707      H    0.3427382368    0.8704881468    0.3369343170         -0.0042
H1708      H    0.3107177793    0.8882444808    0.1926167893         -0.0042
H1709      H    0.3065115835    0.8910304672    0.1634963673         -0.0042
H1711      H    0.2776063357    0.8536983951    0.1635764264         -0.0042
H1712      H    0.2816756826    0.8507944626    0.1927129789         -0.0042
C1563      C    0.3437501114    0.0593629370    0.5037581738         -0.0042
C1564      C    0.3448077500    0.0460681876    0.5118868775         -0.0042
C1565      C    0.3448646205    0.0330445921    0.5028720780         -0.0042
C1566      C    0.3438801637    0.0335996608    0.4859304505         -0.0042
C1567      C    0.3428447553    0.0471694757    0.4783432934         -0.0042
C1568      C    0.3427926979    0.0598299463    0.4872048412         -0.0042
C1569      C    0.3439441107    0.0197906923    0.4766673382         -0.0042
C1570      C    0.3448881595    0.0065707113    0.4851066356         -0.0042
C1571      C    0.3458567219    0.0064574670    0.5020120748         -0.0042
C1572      C    0.3458668365    0.0195806727    0.5108164373         -0.0042
C1573      C    0.3457760802    0.0456216065    0.5287799636         -0.0042
C1574      C    0.3468483263    0.0322019839    0.5367177799         -0.0042
C1575      C    0.3468690988    0.0192182274    0.5277350910         -0.0042
C1576      C    0.3468252119    0.9930726224    0.5101901325         -0.0042
C1577      C    0.3478400485    0.9928178396    0.5270484278         -0.0042
C1578      C    0.3478755803    0.0058242235    0.5357907912         -0.0042
C1579      C    0.3467639755    0.9799054006    0.5015568473         -0.0042
C1580      C    0.3457732724    0.9800383252    0.4847349724         -0.0042
C1581      C    0.3448681896    0.9933590542    0.4765374230         -0.0042
C1582      C    0.3439291761    0.9934526389    0.4596644412         -0.0042
C1583      C    0.3430647386    0.0065224088    0.4514673916         -0.0042
C1584      C    0.3430735790    0.0194966661    0.4597934636         -0.0042
C1585      C    0.3489006724    0.0054282680    0.5526823868         -0.0042
C1586      C    0.3489116918    0.0182732507    0.5613876420         -0.0042
C1587      C    0.3478904622    0.0314643908    0.5535582432         -0.0042
C1588      C    0.3498879595    0.9922054307    0.5607064154         -0.0042
C1589      C    0.3498277789    0.9792625653    0.5521308906         -0.0042
C1590      C    0.3488047141    0.9795201081    0.5352468478         -0.0042
C1591      C    0.3487207606    0.9664464960    0.5266324888         -0.0042
C1592      C    0.3476885905    0.9665938030    0.5097616725         -0.0042
C1593      C    0.3507811955    0.9660391111    0.5602074347         -0.0042
C1594      C    0.3506964591    0.9531034984    0.5516816507         -0.0042
C1595      C    0.3496596830    0.9531982649    0.5349447205         -0.0042
C1596      C    0.3456515008    0.9668841715    0.4760373248         -0.0042
C1597      C    0.3447067599    0.9673763581    0.4591964374         -0.0042
C1598      C    0.3438670267    0.9804863094    0.4511576128         -0.0042
C1599      C    0.3475577206    0.9534007058    0.5011867837         -0.0042
C1600      C    0.3464799002    0.9535565563    0.4842867679         -0.0042
C1601      C    0.3495360870    0.9402421846    0.5264160368         -0.0042
C1602      C    0.3484768694    0.9403115520    0.5097853675         -0.0042
C1603      C    0.3455799376    0.0592045850    0.5381634044         -0.0042
C1604      C    0.3460579546    0.9397912677    0.4752612813         -0.0042
C1605      C    0.3591875464    0.0664274955    0.5415892969         -0.0042
C1606      C    0.3589624855    0.0792241394    0.5504472236         -0.0042
C1607      C    0.3451776430    0.0848462347    0.5559061789         -0.0042
C1608      C    0.3315960766    0.0776807687    0.5525086429         -0.0042
C1609      C    0.3317742710    0.0648770277    0.5436599376         -0.0042
C1610      C    0.3320851356    0.9332861354    0.4716899768         -0.0042
C1611      C    0.3316802653    0.9202946884    0.4631950708         -0.0042
C1612      C    0.3451924636    0.9137755935    0.4582228870         -0.0042
C1613      C    0.3591422323    0.9202357218    0.4617553979         -0.0042
C1614      C    0.3595990004    0.9332212702    0.4702656152         -0.0042
H1615      H    0.3436563645    0.0695494927    0.5100762849         -0.0042
H1616      H    0.3420591114    0.0483711238    0.4655631264         -0.0042
H1617      H    0.3419794070    0.0701345133    0.4811650785         -0.0042
H1618      H    0.3423650864    0.0067310106    0.4385151214         -0.0042
H1619      H    0.3423984050    0.0291328201    0.4526516568         -0.0042
H1620      H    0.3496899617    0.0181312340    0.5743317539         -0.0042
H1621      H    0.3479417892    0.0410838969    0.5608964365         -0.0042
H1622      H    0.3506824814    0.9919921949    0.5736623871         -0.0042
H1623      H    0.3515681209    0.9656990289    0.5731428648         -0.0042
H1624      H    0.3514356239    0.9430139339    0.5581811613         -0.0042
H1625      H    0.3446156069    0.9576473968    0.4520381990         -0.0042
H1626      H    0.3431587963    0.9804723002    0.4382045574         -0.0042
H1627      H    0.3502433322    0.9299972365    0.5326255360         -0.0042
H1628      H    0.3484087864    0.9299783203    0.5037537745         -0.0042
H1629      H    0.3699081383    0.0621439460    0.5374081162         -0.0042
H1630      H    0.3694651685    0.0847917509    0.5530726902         -0.0042
H1632      H    0.3209341393    0.0820395853    0.5567349680         -0.0042
H1633      H    0.3212042733    0.0593905301    0.5410801240         -0.0042
H1634      H    0.3215672331    0.9382733261    0.4754933949         -0.0042
H1635      H    0.3208961348    0.9152808904    0.4604573836         -0.0042
H1637      H    0.3695919315    0.9151776146    0.4579002916         -0.0042
H1638      H    0.3704456941    0.9381575294    0.4729663191         -0.0042
C1489      C    0.3071640001    0.7595257553    0.4882050492         -0.0042
C1490      C    0.2911930631    0.7591265490    0.4872819754         -0.0042
C1491      C    0.2831818362    0.7482118168    0.4957669331         -0.0042
C1492      C    0.2913116302    0.7379477676    0.5050010734         -0.0042
C1493      C    0.3072934787    0.7387970431    0.5055533324         -0.0042
C1494      C    0.3150375293    0.7494668168    0.4972487214         -0.0042
C1495      C    0.2826861808    0.7265499545    0.5138234885         -0.0042
C1496      C    0.2666608661    0.7262978904    0.5126041635         -0.0042
C1497      C    0.2589559183    0.7367236363    0.5032760078         -0.0042
C1498      C    0.2671436068    0.7475981698    0.4949486879         -0.0042
C1499      C    0.2831866602    0.7693998333    0.4780385890         -0.0042
C1500      C    0.2671833662    0.7688431320    0.4772709931         -0.0042
C1501      C    0.2591991278    0.7579431565    0.4856980203         -0.0042
C1502      C    0.2428913201    0.7362612943    0.5022716834         -0.0042
C1503      C    0.2350711149    0.7466252430    0.4930424243         -0.0042
C1504      C    0.2431754846    0.7574276783    0.4848001793         -0.0042
C1505      C    0.2345937955    0.7254375053    0.5104649662         -0.0042
C1506      C    0.2422826598    0.7150561474    0.5197203749         -0.0042
C1507      C    0.2582889196    0.7155167389    0.5208029453         -0.0042
C1508      C    0.2659577117    0.7051189551    0.5301402632         -0.0042
C1509      C    0.2817275791    0.7054946911    0.5313140155         -0.0042
C1510      C    0.2899898845    0.7160235149    0.5233072827         -0.0042
C1511      C    0.2352092673    0.7677557599    0.4755921336         -0.0042
C1512      C    0.2431844933    0.7784516849    0.4673897398         -0.0042
C1513      C    0.2589230493    0.7790026641    0.4681869839         -0.0042
C1514      C    0.2193596521    0.7672848610    0.4746578449         -0.0042
C1515      C    0.2112430362    0.7565931803    0.4827651374         -0.0042
C1516      C    0.2190782027    0.7462104777    0.4920025024         -0.0042
C1517      C    0.2108613421    0.7354250567    0.5001441527         -0.0042
C1518      C    0.2185902849    0.7249967235    0.5093918119         -0.0042
C1519      C    0.1953738496    0.7561326996    0.4817719007         -0.0042
C1520      C    0.1872449730    0.7454587570    0.4898276648         -0.0042
C1521      C    0.1948668731    0.7350832394    0.4990034644         -0.0042
C1522      C    0.2340332087    0.7041644801    0.5278999383         -0.0042
C1523      C    0.2420555648    0.6939555957    0.5371206058         -0.0042
C1524      C    0.2577893411    0.6944561285    0.5382101934         -0.0042
C1525      C    0.2102517963    0.7141546111    0.5174993707         -0.0042
C1526      C    0.2180072290    0.7036858446    0.5267253869         -0.0042
C1527      C    0.1867252872    0.7243756630    0.5070340847         -0.0042
C1528      C    0.1942795887    0.7140380266    0.5161337617         -0.0042
C1529      C    0.2915672877    0.7806914210    0.4690888978         -0.0042
C1530      C    0.2093775744    0.6921582947    0.5349993811         -0.0042
C1531      C    0.2950025191    0.7939050732    0.4764343361         -0.0042
C1532      C    0.3028951809    0.8045294823    0.4679593342         -0.0042
C1533      C    0.3073792583    0.8020053969    0.4521504385         -0.0042
C1534      C    0.3039811241    0.7888487876    0.4447958302         -0.0042
C1535      C    0.2960837027    0.7781989188    0.4532287847         -0.0042
C1536      C    0.2067132672    0.6789554911    0.5272768006         -0.0042
C1537      C    0.1985593124    0.6680856317    0.5350663275         -0.0042
C1538      C    0.1930679398    0.6703428190    0.5505698102         -0.0042
C1539      C    0.1957108493    0.6834896549    0.5583073654         -0.0042
C1540      C    0.2038461140    0.6943966669    0.5505522867         -0.0042
H1541      H    0.3137605020    0.7676043941    0.4819680730         -0.0042
H1542      H    0.3141526288    0.7313695006    0.5123020847         -0.0042
H1543      H    0.3273002279    0.7499327417    0.4978130447         -0.0042
H1544      H    0.2877376950    0.6975850714    0.5384670762         -0.0042
H1545      H    0.3021074149    0.7156349068    0.5248008039         -0.0042
H1546      H    0.2372294786    0.7864320942    0.4602901058         -0.0042
H1547      H    0.2645279380    0.7875178900    0.4615880168         -0.0042
H1548      H    0.2133317782    0.7752508476    0.4675808979         -0.0042
H1549      H    0.1892392082    0.7640269427    0.4747306018         -0.0042
H1550      H    0.1749861073    0.7453117535    0.4888771114         -0.0042
H1551      H    0.2362752419    0.6854745241    0.5436046315         -0.0042
H1552      H    0.2635958871    0.6864440716    0.5454085273         -0.0042
H1553      H    0.1744556393    0.7239722600    0.5062676923         -0.0042
H1554      H    0.1874414738    0.7059674579    0.5221011643         -0.0042
H1555      H    0.2915685391    0.7959443857    0.4886698152         -0.0042
H1556      H    0.3055482229    0.8147139993    0.4736416306         -0.0042
H1558      H    0.3074571109    0.7869034323    0.4325635196         -0.0042
H1559      H    0.2934935652    0.7680365576    0.4474454091         -0.0042
H1560      H    0.2109370009    0.6771213064    0.5152693445         -0.0042
H1561      H    0.1965010590    0.6579096695    0.5290933303         -0.0042
H1563      H    0.1914532034    0.6852222851    0.5703067913         -0.0042
H1564      H    0.2058415129    0.7045542916    0.5566164603         -0.0042
loop_
_geom_bond_atom_site_label_1
_geom_bond_atom_site_label_2
_geom_bond_distance
_geom_bond_site_symmetry_2
_ccdc_geom_bond_type
C1           C2 1.408       .   S
C1          N36 1.361       .   D
C1          C53 1.475       .   S
C2           C3 1.401       .   D
C2          H56 1.083       .   S
C3           C4 1.400       .   S
C3          H57 1.083       .   S
C5           C4 1.407       .   D
C12          C4 1.404       .   S
C5           C6 1.406       .   S
H58          C5 1.083       .   S
C6           C7 1.405       .   D
C6          H59 1.083       .   S
C7           C8 1.406       .   S
C7          C11 1.404       .   S
C8          H60 1.083       .   S
C8           C9 1.406       .   D
C9          C10 1.403       .   S
C9          H61 1.083       .   S
C10         N37 1.355       .   D
C10         C14 1.462       .   S
C11         C12 1.413       .   D
C11         N37 1.357       .   S
N36         C12 1.367       .   S
C13         H62 1.083       .   S
C13         C50 1.476       .   S
N40         C13 1.299       .   D
C14         C15 1.399       .   D
C14         C19 1.400       .   S
C15         C16 1.396       .   S
C15         H63 1.083       .   S
C16         C17 1.404       .   D
C16         H64 1.083       .   S
C17         C20 1.473       .   S
C17         C18 1.406       .   S
C18         C19 1.397       .   D
C18         H65 1.083       .   S
C19         H66 1.083       .   S
C20         H67 1.082       .   S
C20         N41 1.300       .   D
C21         C84 1.467       .   S
C21         N38 1.357       .   D
C21         C22 1.405       .   S
C22         C23 1.403       .   D
C22         H68 1.083       .   S
C23         H69 1.083       .   S
C23         C24 1.403       .   S
C24         C32 1.404       .   D
C25         C24 1.405       .   S
C25         C26 1.404       .   D
C25         H70 1.083       .   S
C26         H71 1.083       .   S
C27         C26 1.406       .   S
C27         C28 1.401       .   S
C27         C31 1.405       .   D
C28         C29 1.402       .   D
C28         H72 1.083       .   S
C29         H73 1.083       .   S
C29         C30 1.406       .   S
C30         N39 1.361       .   D
C30         C44 1.470       .   S
C31         C32 1.414       .   S
C31         N39 1.364       .   S
C32         N38 1.361       .   S
C33         H74 1.083       .   S
C33         C87 1.474       .   S
C33         N42 1.300       .   D
C34         N43 1.300       .   D
C34         C47 1.473       .   S
C34         H75 1.084       .   S
Cu35        N38 1.903       .   S
Cu35        N39 1.922       .   S
Cu35        N37 1.902       .   S
N36        Cu35 1.924       .   S
N40       C1760 1.358       .   S
N41       C1612 1.262       .   S
N42       C1533 1.325       .   S
N43       C1681 1.211       .   S
C44         C49 1.400       .   D
C45         C44 1.403       .   S
C45         H76 1.084       .   S
C45         C46 1.395       .   D
C46         C47 1.405       .   S
C46         H77 1.083       .   S
C48         C47 1.404       .   D
C48         H78 1.083       .   S
C48         C49 1.397       .   S
C49         H79 1.079       .   S
C50         C55 1.407       .   S
C50         C51 1.403       .   D
C51         C52 1.397       .   S
C51         H80 1.083       .   S
C52         C53 1.404       .   D
C52         H81 1.083       .   S
C53         C54 1.400       .   S
C54         H82 1.077       .   S
C54         C55 1.397       .   D
C55         H83 1.083       .   S
C84         C85 1.398       .   S
C89         C84 1.474       .   D
C85         C86 1.402       .   D
C85         H90 1.083       .   S
C86         H91 1.083       .   S
C87         C86 1.410       .   S
C87         C88 1.402       .   D
C88         H92 1.084       .   S
C88         C89 1.389       .   S
C89         H93 1.083       .   S
C94         C95 1.408       .   S
C94        N129 1.361       .   D
C94        C146 1.475       .   S
C95         C96 1.401       .   D
C95        H149 1.083       .   S
C96         C97 1.400       .   S
C96        H150 1.083       .   S
C98         C97 1.407       .   D
C105        C97 1.404       .   S
C98         C99 1.406       .   S
H151        C98 1.083       .   S
C99        C100 1.405       .   D
C99        H152 1.083       .   S
C100       C101 1.406       .   S
C100       C104 1.404       .   S
C101       H153 1.083       .   S
C101       C102 1.406       .   D
C102       C103 1.403       .   S
C102       H154 1.083       .   S
C103       N130 1.355       .   D
C103       C107 1.462       .   S
C104       C105 1.413       .   D
C104       N130 1.357       .   S
N129       C105 1.367       .   S
C106       H155 1.083       .   S
C106       C143 1.476       .   S
N133       C106 1.299       .   D
C107       C108 1.399       .   D
C107       C112 1.400       .   S
C108       C109 1.396       .   S
C108       H156 1.083       .   S
C109       C110 1.404       .   D
C109       H157 1.083       .   S
C110       C113 1.473       .   S
C110       C111 1.406       .   S
C111       C112 1.397       .   D
C111       H158 1.083       .   S
C112       H159 1.083       .   S
C113       H160 1.082       .   S
C113       N134 1.300       .   D
C114       C177 1.467       .   S
C114       N131 1.357       .   D
C114       C115 1.405       .   S
C115       C116 1.403       .   D
C115       H161 1.083       .   S
C116       H162 1.083       .   S
C116       C117 1.403       .   S
C117       C125 1.404       .   D
C118       C117 1.405       .   S
C118       C119 1.404       .   D
C118       H163 1.083       .   S
C119       H164 1.083       .   S
C120       C119 1.406       .   S
C120       C121 1.401       .   S
C120       C124 1.405       .   D
C121       C122 1.402       .   D
C121       H165 1.083       .   S
C122       H166 1.083       .   S
C122       C123 1.406       .   S
C123       N132 1.361       .   D
C123       C137 1.470       .   S
C124       C125 1.414       .   S
C124       N132 1.364       .   S
C125       N131 1.361       .   S
C126       H167 1.083       .   S
C126       C180 1.474       .   S
C126       N135 1.300       .   D
C127       N136 1.300       .   D
C127       C140 1.473       .   S
C127       H168 1.084       .   S
Cu128      N131 1.903       .   S
Cu128      N132 1.922       .   S
Cu128      N130 1.902       .   S
N129      Cu128 1.924       .   S
N133      C1977 1.355       .   S
N134      C1908 1.210       .   S
N135      C1538 1.325       .   S
N136      C1834 1.187       .   S
C137       C142 1.400       .   D
C138       C137 1.403       .   S
C138       H169 1.084       .   S
C138       C139 1.395       .   D
C139       C140 1.405       .   S
C139       H170 1.083       .   S
C141       C140 1.404       .   D
C141       H171 1.083       .   S
C141       C142 1.397       .   S
C142       H172 1.079       .   S
C143       C148 1.407       .   S
C143       C144 1.403       .   D
C144       C145 1.397       .   S
C144       H173 1.083       .   S
C145       C146 1.404       .   D
C145       H174 1.083       .   S
C146       C147 1.400       .   S
C147       H175 1.077       .   S
C147       C148 1.397       .   D
C148       H176 1.083       .   S
C177       C178 1.398       .   S
C182       C177 1.474       .   D
C178       C179 1.402       .   D
C178       H183 1.083       .   S
C179       H184 1.083       .   S
C180       C179 1.410       .   S
C180       C181 1.402       .   D
C181       H185 1.084       .   S
C181       C182 1.389       .   S
C182       H186 1.083       .   S
C187       C188 1.408       .   S
C187       N222 1.361       .   D
C187       C239 1.475       .   S
C188       C189 1.401       .   D
C188       H242 1.083       .   S
C189       C190 1.400       .   S
C189       H243 1.083       .   S
C191       C190 1.407       .   D
C198       C190 1.404       .   S
C191       C192 1.406       .   S
H244       C191 1.083       .   S
C192       C193 1.405       .   D
C192       H245 1.083       .   S
C193       C194 1.406       .   S
C193       C197 1.404       .   S
C194       H246 1.083       .   S
C194       C195 1.406       .   D
C195       C196 1.403       .   S
C195       H247 1.083       .   S
C196       N223 1.355       .   D
C196       C200 1.462       .   S
C197       C198 1.413       .   D
C197       N223 1.357       .   S
N222       C198 1.367       .   S
C199       H248 1.083       .   S
C199       C236 1.476       .   S
N226       C199 1.299       .   D
C200       C201 1.399       .   D
C200       C205 1.400       .   S
C201       C202 1.396       .   S
C201       H249 1.083       .   S
C202       C203 1.404       .   D
C202       H250 1.083       .   S
C203       C206 1.473       .   S
C203       C204 1.406       .   S
C204       C205 1.397       .   D
C204       H251 1.083       .   S
C205       H252 1.083       .   S
C206       H253 1.082       .   S
C206       N227 1.300       .   D
C207       C270 1.467       .   S
C207       N224 1.357       .   D
C207       C208 1.405       .   S
C208       C209 1.403       .   D
C208       H254 1.083       .   S
C209       H255 1.083       .   S
C209       C210 1.403       .   S
C210       C218 1.404       .   D
C211       C210 1.405       .   S
C211       C212 1.404       .   D
C211       H256 1.083       .   S
C212       H257 1.083       .   S
C213       C212 1.406       .   S
C213       C214 1.401       .   S
C213       C217 1.405       .   D
C214       C215 1.402       .   D
C214       H258 1.083       .   S
C215       H259 1.083       .   S
C215       C216 1.406       .   S
C216       N225 1.361       .   D
C216       C230 1.470       .   S
C217       C218 1.414       .   S
C217       N225 1.364       .   S
C218       N224 1.361       .   S
C219       H260 1.083       .   S
C219       C273 1.474       .   S
C219       N228 1.300       .   D
C220       N229 1.300       .   D
C220       C233 1.473       .   S
C220       H261 1.084       .   S
Cu221      N224 1.903       .   S
Cu221      N225 1.922       .   S
Cu221      N223 1.902       .   S
N222      Cu221 1.924       .   S
N226      C2199 1.355       .   S
N227      C2130 1.209       .   S
N228      C2056 1.327       .   S
N229      C1829 1.187       .   S
C230       C235 1.400       .   D
C231       C230 1.403       .   S
C231       H262 1.084       .   S
C231       C232 1.395       .   D
C232       C233 1.405       .   S
C232       H263 1.083       .   S
C234       C233 1.404       .   D
C234       H264 1.083       .   S
C234       C235 1.397       .   S
C235       H265 1.079       .   S
C236       C241 1.407       .   S
C236       C237 1.403       .   D
C237       C238 1.397       .   S
C237       H266 1.083       .   S
C238       C239 1.404       .   D
C238       H267 1.083       .   S
C239       C240 1.400       .   S
C240       H268 1.077       .   S
C240       C241 1.397       .   D
C241       H269 1.083       .   S
C270       C271 1.398       .   S
C275       C270 1.474       .   D
C271       C272 1.402       .   D
C271       H276 1.083       .   S
C272       H277 1.083       .   S
C273       C272 1.410       .   S
C273       C274 1.402       .   D
C274       H278 1.084       .   S
C274       C275 1.389       .   S
C275       H279 1.083       .   S
C280       C281 1.408       .   S
C280       N315 1.361       .   D
C280       C332 1.475       .   S
C281       C282 1.401       .   D
C281       H335 1.083       .   S
C282       C283 1.400       .   S
C282       H336 1.083       .   S
C284       C283 1.407       .   D
C291       C283 1.404       .   S
C284       C285 1.406       .   S
H337       C284 1.083       .   S
C285       C286 1.405       .   D
C285       H338 1.083       .   S
C286       C287 1.406       .   S
C286       C290 1.404       .   S
C287       H339 1.083       .   S
C287       C288 1.406       .   D
C288       C289 1.403       .   S
C288       H340 1.083       .   S
C289       N316 1.355       .   D
C289       C293 1.462       .   S
C290       C291 1.413       .   D
C290       N316 1.357       .   S
N315       C291 1.367       .   S
C292       H341 1.083       .   S
C292       C329 1.476       .   S
N319       C292 1.299       .   D
C293       C294 1.399       .   D
C293       C298 1.400       .   S
C294       C295 1.396       .   S
C294       H342 1.083       .   S
C295       C296 1.404       .   D
C295       H343 1.083       .   S
C296       C299 1.473       .   S
C296       C297 1.406       .   S
C297       C298 1.397       .   D
C297       H344 1.083       .   S
C298       H345 1.083       .   S
C299       H346 1.082       .   S
C299       N320 1.300       .   D
C300       C363 1.467       .   S
C300       N317 1.357       .   D
C300       C301 1.405       .   S
C301       C302 1.403       .   D
C301       H347 1.083       .   S
C302       H348 1.083       .   S
C302       C303 1.403       .   S
C303       C311 1.404       .   D
C304       C303 1.405       .   S
C304       C305 1.404       .   D
C304       H349 1.083       .   S
C305       H350 1.083       .   S
C306       C305 1.406       .   S
C306       C307 1.401       .   S
C306       C310 1.405       .   D
C307       C308 1.402       .   D
C307       H351 1.083       .   S
C308       H352 1.083       .   S
C308       C309 1.406       .   S
C309       N318 1.361       .   D
C309       C323 1.470       .   S
C310       C311 1.414       .   S
C310       N318 1.364       .   S
C311       N317 1.361       .   S
C312       H353 1.083       .   S
C312       C366 1.474       .   S
C312       N321 1.300       .   D
C313       N322 1.300       .   D
C313       C326 1.473       .   S
C313       H354 1.084       .   S
Cu314      N317 1.903       .   S
Cu314      N318 1.922       .   S
Cu314      N316 1.902       .   S
N315      Cu314 1.924       .   S
N319      C2352 1.356       .   S
N320      C1607 1.262   1_545   S
N321      C2051 1.327       .   S
N322      C2273 1.210       .   S
C323       C328 1.400       .   D
C324       C323 1.403       .   S
C324       H355 1.084       .   S
C324       C325 1.395       .   D
C325       C326 1.405       .   S
C325       H356 1.083       .   S
C327       C326 1.404       .   D
C327       H357 1.083       .   S
C327       C328 1.397       .   S
C328       H358 1.079       .   S
C329       C334 1.407       .   S
C329       C330 1.403       .   D
C330       C331 1.397       .   S
C330       H359 1.083       .   S
C331       C332 1.404       .   D
C331       H360 1.083       .   S
C332       C333 1.400       .   S
C333       H361 1.077       .   S
C333       C334 1.397       .   D
C334       H362 1.083       .   S
C363       C364 1.398       .   S
C368       C363 1.474       .   D
C364       C365 1.402       .   D
C364       H369 1.083       .   S
C365       H370 1.083       .   S
C366       C365 1.410       .   S
C366       C367 1.402       .   D
C367       H371 1.084       .   S
C367       C368 1.389       .   S
C368       H372 1.083       .   S
C373       C374 1.408       .   S
C373       N408 1.361       .   D
C373       C425 1.475       .   S
C374       C375 1.401       .   D
C374       H428 1.083       .   S
C375       C376 1.400       .   S
C375       H429 1.083       .   S
C377       C376 1.407       .   D
C384       C376 1.404       .   S
C377       C378 1.406       .   S
H430       C377 1.083       .   S
C378       C379 1.405       .   D
C378       H431 1.083       .   S
C379       C380 1.406       .   S
C379       C383 1.404       .   S
C380       H432 1.083       .   S
C380       C381 1.406       .   D
C381       C382 1.403       .   S
C381       H433 1.083       .   S
C382       N409 1.355       .   D
C382       C386 1.462       .   S
C383       C384 1.413       .   D
C383       N409 1.357       .   S
N408       C384 1.367       .   S
C385       H434 1.083       .   S
C385       C422 1.476       .   S
N412       C385 1.299       .   D
C386       C387 1.399       .   D
C386       C391 1.400       .   S
C387       C388 1.396       .   S
C387       H435 1.083       .   S
C388       C389 1.404       .   D
C388       H436 1.083       .   S
C389       C392 1.473       .   S
C389       C390 1.406       .   S
C390       C391 1.397       .   D
C390       H437 1.083       .   S
C391       H438 1.083       .   S
C392       H439 1.082       .   S
C392       N413 1.300       .   D
C393       C456 1.467       .   S
C393       N410 1.357       .   D
C393       C394 1.405       .   S
C394       C395 1.403       .   D
C394       H440 1.083       .   S
C395       H441 1.083       .   S
C395       C396 1.403       .   S
C396       C404 1.404       .   D
C397       C396 1.405       .   S
C397       C398 1.404       .   D
C397       H442 1.083       .   S
C398       H443 1.083       .   S
C399       C398 1.406       .   S
C399       C400 1.401       .   S
C399       C403 1.405       .   D
C400       C401 1.402       .   D
C400       H444 1.083       .   S
C401       H445 1.083       .   S
C401       C402 1.406       .   S
C402       N411 1.361       .   D
C402       C416 1.470       .   S
C403       C404 1.414       .   S
C403       N411 1.364       .   S
C404       N410 1.361       .   S
C405       H446 1.083       .   S
C405       C459 1.474       .   S
C405       N414 1.300       .   D
C406       N415 1.300       .   D
C406       C419 1.473       .   S
C406       H447 1.084       .   S
Cu407      N410 1.903       .   S
Cu407      N411 1.922       .   S
Cu407      N409 1.902       .   S
N408      Cu407 1.924       .   S
N412      C2569 1.356       .   S
N413      C2495 1.261       .   S
N414      C2426 1.324       .   S
N415      C2125 1.209       .   S
C416       C421 1.400       .   D
C417       C416 1.403       .   S
C417       H448 1.084       .   S
C417       C418 1.395       .   D
C418       C419 1.405       .   S
C418       H449 1.083       .   S
C420       C419 1.404       .   D
C420       H450 1.083       .   S
C420       C421 1.397       .   S
C421       H451 1.079       .   S
C422       C427 1.407       .   S
C422       C423 1.403       .   D
C423       C424 1.397       .   S
C423       H452 1.083       .   S
C424       C425 1.404       .   D
C424       H453 1.083       .   S
C425       C426 1.400       .   S
C426       H454 1.077       .   S
C426       C427 1.397       .   D
C427       H455 1.083       .   S
C456       C457 1.398       .   S
C461       C456 1.474       .   D
C457       C458 1.402       .   D
C457       H462 1.083       .   S
C458       H463 1.083       .   S
C459       C458 1.410       .   S
C459       C460 1.402       .   D
C460       H464 1.084       .   S
C460       C461 1.389       .   S
C461       H465 1.083       .   S
C466       C467 1.408       .   S
C466       N501 1.361       .   D
C466       C518 1.475       .   S
C467       C468 1.401       .   D
C467       H521 1.083       .   S
C468       C469 1.400       .   S
C468       H522 1.083       .   S
C470       C469 1.407       .   D
C477       C469 1.404       .   S
C470       C471 1.406       .   S
H523       C470 1.083       .   S
C471       C472 1.405       .   D
C471       H524 1.083       .   S
C472       C473 1.406       .   S
C472       C476 1.404       .   S
C473       H525 1.083       .   S
C473       C474 1.406       .   D
C474       C475 1.403       .   S
C474       H526 1.083       .   S
C475       N502 1.355       .   D
C475       C479 1.462       .   S
C476       C477 1.413       .   D
C476       N502 1.357       .   S
N501       C477 1.367       .   S
C478       H527 1.083       .   S
C478       C515 1.476       .   S
N505       C478 1.299       .   D
C479       C480 1.399       .   D
C479       C484 1.400       .   S
C480       C481 1.396       .   S
C480       H528 1.083       .   S
C481       C482 1.404       .   D
C481       H529 1.083       .   S
C482       C485 1.473       .   S
C482       C483 1.406       .   S
C483       C484 1.397       .   D
C483       H530 1.083       .   S
C484       H531 1.083       .   S
C485       H532 1.082       .   S
C485       N506 1.300       .   D
C486       C549 1.467       .   S
C486       N503 1.357       .   D
C486       C487 1.405       .   S
C487       C488 1.403       .   D
C487       H533 1.083       .   S
C488       H534 1.083       .   S
C488       C489 1.403       .   S
C489       C497 1.404       .   D
C490       C489 1.405       .   S
C490       C491 1.404       .   D
C490       H535 1.083       .   S
C491       H536 1.083       .   S
C492       C491 1.406       .   S
C492       C493 1.401       .   S
C492       C496 1.405       .   D
C493       C494 1.402       .   D
C493       H537 1.083       .   S
C494       H538 1.083       .   S
C494       C495 1.406       .   S
C495       N504 1.361       .   D
C495       C509 1.470       .   S
C496       C497 1.414       .   S
C496       N504 1.364       .   S
C497       N503 1.361       .   S
C498       H539 1.083       .   S
C498       C552 1.474       .   S
C498       N507 1.300       .   D
C499       N508 1.300       .   D
C499       C512 1.473       .   S
C499       H540 1.084       .   S
Cu500      N503 1.903       .   S
Cu500      N504 1.922       .   S
Cu500      N502 1.902       .   S
N501      Cu500 1.924       .   S
N505      C2722 1.357       .   S
N506      C2278 1.210       .   S
N507      C2421 1.324   1_556   S
N508      C2648 1.184       .   S
C509       C514 1.400       .   D
C510       C509 1.403       .   S
C510       H541 1.084       .   S
C510       C511 1.395       .   D
C511       C512 1.405       .   S
C511       H542 1.083       .   S
C513       C512 1.404       .   D
C513       H543 1.083       .   S
C513       C514 1.397       .   S
C514       H544 1.079       .   S
C515       C520 1.407       .   S
C515       C516 1.403       .   D
C516       C517 1.397       .   S
C516       H545 1.083       .   S
C517       C518 1.404       .   D
C517       H546 1.083       .   S
C518       C519 1.400       .   S
C519       H547 1.077       .   S
C519       C520 1.397       .   D
C520       H548 1.083       .   S
C549       C550 1.398       .   S
C554       C549 1.474       .   D
C550       C551 1.402       .   D
C550       H555 1.083       .   S
C551       H556 1.083       .   S
C552       C551 1.410       .   S
C552       C553 1.402       .   D
C553       H557 1.084       .   S
C553       C554 1.389       .   S
C554       H558 1.083       .   S
C559       C560 1.408       .   S
C559       N594 1.361       .   D
C559       C611 1.475       .   S
C560       C561 1.401       .   D
C560       H614 1.083       .   S
C561       C562 1.400       .   S
C561       H615 1.083       .   S
C563       C562 1.407       .   D
C570       C562 1.404       .   S
C563       C564 1.406       .   S
H616       C563 1.083       .   S
C564       C565 1.405       .   D
C564       H617 1.083       .   S
C565       C566 1.406       .   S
C565       C569 1.404       .   S
C566       H618 1.083       .   S
C566       C567 1.406       .   D
C567       C568 1.403       .   S
C567       H619 1.083       .   S
C568       N595 1.355       .   D
C568       C572 1.462       .   S
C569       C570 1.413       .   D
C569       N595 1.357       .   S
N594       C570 1.367       .   S
C571       H620 1.083       .   S
C571       C608 1.476       .   S
N598       C571 1.299       .   D
C572       C573 1.399       .   D
C572       C577 1.400       .   S
C573       C574 1.396       .   S
C573       H621 1.083       .   S
C574       C575 1.404       .   D
C574       H622 1.083       .   S
C575       C578 1.473       .   S
C575       C576 1.406       .   S
C576       C577 1.397       .   D
C576       H623 1.083       .   S
C577       H624 1.083       .   S
C578       H625 1.082       .   S
C578       N599 1.300       .   D
C579       C642 1.467       .   S
C579       N596 1.357       .   D
C579       C580 1.405       .   S
C580       C581 1.403       .   D
C580       H626 1.083       .   S
C581       H627 1.083       .   S
C581       C582 1.403       .   S
C582       C590 1.404       .   D
C583       C582 1.405       .   S
C583       C584 1.404       .   D
C583       H628 1.083       .   S
C584       H629 1.083       .   S
C585       C584 1.406       .   S
C585       C586 1.401       .   S
C585       C589 1.405       .   D
C586       C587 1.402       .   D
C586       H630 1.083       .   S
C587       H631 1.083       .   S
C587       C588 1.406       .   S
C588       N597 1.361       .   D
C588       C602 1.470       .   S
C589       C590 1.414       .   S
C589       N597 1.364       .   S
C590       N596 1.361       .   S
C591       H632 1.083       .   S
C591       C645 1.474       .   S
C591       N600 1.300       .   D
C592       N601 1.300       .   D
C592       C605 1.473       .   S
C592       H633 1.084       .   S
Cu593      N596 1.903       .   S
Cu593      N597 1.922       .   S
Cu593      N595 1.902       .   S
N594      Cu593 1.924       .   S
N598      C2870 1.355       .   S
N599      C1686 1.211       .   S
N600      C2796 1.323       .   S
N601      C2643 1.184   1_564   S
C602       C607 1.400       .   D
C603       C602 1.403       .   S
C603       H634 1.084       .   S
C603       C604 1.395       .   D
C604       C605 1.405       .   S
C604       H635 1.083       .   S
C606       C605 1.404       .   D
C606       H636 1.083       .   S
C606       C607 1.397       .   S
C607       H637 1.079       .   S
C608       C613 1.407       .   S
C608       C609 1.403       .   D
C609       C610 1.397       .   S
C609       H638 1.083       .   S
C610       C611 1.404       .   D
C610       H639 1.083       .   S
C611       C612 1.400       .   S
C612       H640 1.077       .   S
C612       C613 1.397       .   D
C613       H641 1.083       .   S
C642       C643 1.398       .   S
C647       C642 1.474       .   D
C643       C644 1.402       .   D
C643       H648 1.083       .   S
C644       H649 1.083       .   S
C645       C644 1.410       .   S
C645       C646 1.402       .   D
C646       H650 1.084       .   S
C646       C647 1.389       .   S
C647       H651 1.083       .   S
C652       C653 1.408       .   S
C652       N687 1.361       .   D
C652       C704 1.475       .   S
C653       C654 1.401       .   D
C653       H707 1.083       .   S
C654       C655 1.400       .   S
C654       H708 1.083       .   S
C656       C655 1.407       .   D
C663       C655 1.404       .   S
C656       C657 1.406       .   S
H709       C656 1.083       .   S
C657       C658 1.405       .   D
C657       H710 1.083       .   S
C658       C659 1.406       .   S
C658       C662 1.404       .   S
C659       H711 1.083       .   S
C659       C660 1.406       .   D
C660       C661 1.403       .   S
C660       H712 1.083       .   S
C661       N688 1.355       .   D
C661       C665 1.462       .   S
C662       C663 1.413       .   D
C662       N688 1.357       .   S
N687       C663 1.367       .   S
C664       H713 1.083       .   S
C664       C701 1.476       .   S
N691       C664 1.299       .   D
C665       C666 1.399       .   D
C665       C670 1.400       .   S
C666       C667 1.396       .   S
C666       H714 1.083       .   S
C667       C668 1.404       .   D
C667       H715 1.083       .   S
C668       C671 1.473       .   S
C668       C669 1.406       .   S
C669       C670 1.397       .   D
C669       H716 1.083       .   S
C670       H717 1.083       .   S
C671       H718 1.082       .   S
C671       N692 1.300       .   D
C672       C735 1.467       .   S
C672       N689 1.357       .   D
C672       C673 1.405       .   S
C673       C674 1.403       .   D
C673       H719 1.083       .   S
C674       H720 1.083       .   S
C674       C675 1.403       .   S
C675       C683 1.404       .   D
C676       C675 1.405       .   S
C676       C677 1.404       .   D
C676       H721 1.083       .   S
C677       H722 1.083       .   S
C678       C677 1.406       .   S
C678       C679 1.401       .   S
C678       C682 1.405       .   D
C679       C680 1.402       .   D
C679       H723 1.083       .   S
C680       H724 1.083       .   S
C680       C681 1.406       .   S
C681       N690 1.361       .   D
C681       C695 1.470       .   S
C682       C683 1.414       .   S
C682       N690 1.364       .   S
C683       N689 1.361       .   S
C684       H725 1.083       .   S
C684       C738 1.474       .   S
C684       N693 1.300       .   D
C685       N694 1.300       .   D
C685       C698 1.473       .   S
C685       H726 1.084       .   S
Cu686      N689 1.903       .   S
Cu686      N690 1.922       .   S
Cu686      N688 1.902       .   S
N687      Cu686 1.924       .   S
N691      C2944 1.357       .   S
N692      C2500 1.261   1_556   S
N693      C2791 1.323   1_556   S
N694      C1903 1.210       .   S
C695       C700 1.400       .   D
C696       C695 1.403       .   S
C696       H727 1.084       .   S
C696       C697 1.395       .   D
C697       C698 1.405       .   S
C697       H728 1.083       .   S
C699       C698 1.404       .   D
C699       H729 1.083       .   S
C699       C700 1.397       .   S
C700       H730 1.079       .   S
C701       C706 1.407       .   S
C701       C702 1.403       .   D
C702       C703 1.397       .   S
C702       H731 1.083       .   S
C703       C704 1.404       .   D
C703       H732 1.083       .   S
C704       C705 1.400       .   S
C705       H733 1.077       .   S
C705       C706 1.397       .   D
C706       H734 1.083       .   S
C735       C736 1.398       .   S
C740       C735 1.474       .   D
C736       C737 1.402       .   D
C736       H741 1.083       .   S
C737       H742 1.083       .   S
C738       C737 1.410       .   S
C738       C739 1.402       .   D
C739       H743 1.084       .   S
C739       C740 1.389       .   S
C740       H744 1.083       .   S
C745       C746 1.408       .   S
C745       N780 1.361       .   D
C745       C797 1.475       .   S
C746       C747 1.401       .   D
C746       H800 1.083       .   S
C747       C748 1.400       .   S
C747       H801 1.083       .   S
C749       C748 1.407       .   D
C756       C748 1.404       .   S
C749       C750 1.406       .   S
H802       C749 1.083       .   S
C750       C751 1.405       .   D
C750       H803 1.083       .   S
C751       C752 1.406       .   S
C751       C755 1.404       .   S
C752       H804 1.083       .   S
C752       C753 1.406       .   D
C753       C754 1.403       .   S
C753       H805 1.083       .   S
C754       N781 1.355       .   D
C754       C758 1.462       .   S
C755       C756 1.413       .   D
C755       N781 1.357       .   S
N780       C756 1.367       .   S
C757       H806 1.083       .   S
C757       C794 1.476       .   S
N784       C757 1.299       .   D
C758       C759 1.399       .   D
C758       C763 1.400       .   S
C759       C760 1.396       .   S
C759       H807 1.083       .   S
C760       C761 1.404       .   D
C760       H808 1.083       .   S
C761       C764 1.473       .   S
C761       C762 1.406       .   S
C762       C763 1.397       .   D
C762       H809 1.083       .   S
C763       H810 1.083       .   S
C764       H811 1.082       .   S
C764       N785 1.300       .   D
C765       C828 1.467       .   S
C765       N782 1.357       .   D
C765       C766 1.405       .   S
C766       C767 1.403       .   D
C766       H812 1.083       .   S
C767       H813 1.083       .   S
C767       C768 1.403       .   S
C768       C776 1.404       .   D
C769       C768 1.405       .   S
C769       C770 1.404       .   D
C769       H814 1.083       .   S
C770       H815 1.083       .   S
C771       C770 1.406       .   S
C771       C772 1.401       .   S
C771       C775 1.405       .   D
C772       C773 1.402       .   D
C772       H816 1.083       .   S
C773       H817 1.083       .   S
C773       C774 1.406       .   S
C774       N783 1.361       .   D
C774       C788 1.470       .   S
C775       C776 1.414       .   S
C775       N783 1.364       .   S
C776       N782 1.361       .   S
C777       H818 1.083       .   S
C777       C831 1.474       .   S
C777       N786 1.300       .   D
C778       N787 1.300       .   D
C778       C791 1.473       .   S
C778       H819 1.084       .   S
Cu779      N782 1.903       .   S
Cu779      N783 1.922       .   S
Cu779      N781 1.902       .   S
N780      Cu779 1.924       .   S
N784      C1755 1.358       .   S
N785      C3161 1.211       .   S
N786      C3013 1.325       .   S
N787      C3092 1.185       .   S
C788       C793 1.400       .   D
C789       C788 1.403       .   S
C789       H820 1.084       .   S
C789       C790 1.395       .   D
C790       C791 1.405       .   S
C790       H821 1.083       .   S
C792       C791 1.404       .   D
C792       H822 1.083       .   S
C792       C793 1.397       .   S
C793       H823 1.079       .   S
C794       C799 1.407       .   S
C794       C795 1.403       .   D
C795       C796 1.397       .   S
C795       H824 1.083       .   S
C796       C797 1.404       .   D
C796       H825 1.083       .   S
C797       C798 1.400       .   S
C798       H826 1.077       .   S
C798       C799 1.397       .   D
C799       H827 1.083       .   S
C828       C829 1.398       .   S
C833       C828 1.474       .   D
C829       C830 1.402       .   D
C829       H834 1.083       .   S
C830       H835 1.083       .   S
C831       C830 1.410       .   S
C831       C832 1.402       .   D
C832       H836 1.084       .   S
C832       C833 1.389       .   S
C833       H837 1.083       .   S
C838       C839 1.408       .   S
C838       N873 1.361       .   D
C838       C890 1.475       .   S
C839       C840 1.401       .   D
C839       H893 1.083       .   S
C840       C841 1.400       .   S
C840       H894 1.083       .   S
C842       C841 1.407       .   D
C849       C841 1.404       .   S
C842       C843 1.406       .   S
H895       C842 1.083       .   S
C843       C844 1.405       .   D
C843       H896 1.083       .   S
C844       C845 1.406       .   S
C844       C848 1.404       .   S
C845       H897 1.083       .   S
C845       C846 1.406       .   D
C846       C847 1.403       .   S
C846       H898 1.083       .   S
C847       N874 1.355       .   D
C847       C851 1.462       .   S
C848       C849 1.413       .   D
C848       N874 1.357       .   S
N873       C849 1.367       .   S
C850       H899 1.083       .   S
C850       C887 1.476       .   S
N877       C850 1.299       .   D
C851       C852 1.399       .   D
C851       C856 1.400       .   S
C852       C853 1.396       .   S
C852       H900 1.083       .   S
C853       C854 1.404       .   D
C853       H901 1.083       .   S
C854       C857 1.473       .   S
C854       C855 1.406       .   S
C855       C856 1.397       .   D
C855       H902 1.083       .   S
C856       H903 1.083       .   S
C857       H904 1.082       .   S
C857       N878 1.300       .   D
C858       C921 1.467       .   S
C858       N875 1.357       .   D
C858       C859 1.405       .   S
C859       C860 1.403       .   D
C859       H905 1.083       .   S
C860       H906 1.083       .   S
C860       C861 1.403       .   S
C861       C869 1.404       .   D
C862       C861 1.405       .   S
C862       C863 1.404       .   D
C862       H907 1.083       .   S
C863       H908 1.083       .   S
C864       C863 1.406       .   S
C864       C865 1.401       .   S
C864       C868 1.405       .   D
C865       C866 1.402       .   D
C865       H909 1.083       .   S
C866       H910 1.083       .   S
C866       C867 1.406       .   S
C867       N876 1.361       .   D
C867       C881 1.470       .   S
C868       C869 1.414       .   S
C868       N876 1.364       .   S
C869       N875 1.361       .   S
C870       H911 1.083       .   S
C870       C924 1.474       .   S
C870       N879 1.300       .   D
C871       N880 1.300       .   D
C871       C884 1.473       .   S
C871       H912 1.084       .   S
Cu872      N875 1.903       .   S
Cu872      N876 1.922       .   S
Cu872      N874 1.902       .   S
N873      Cu872 1.924       .   S
N877      C1982 1.355   1_655   S
N878      C3240 1.260       .   S
N879      C3018 1.325       .   S
N880      C3314 1.210       .   S
C881       C886 1.400       .   D
C882       C881 1.403       .   S
C882       H913 1.084       .   S
C882       C883 1.395       .   D
C883       C884 1.405       .   S
C883       H914 1.083       .   S
C885       C884 1.404       .   D
C885       H915 1.083       .   S
C885       C886 1.397       .   S
C886       H916 1.079       .   S
C887       C892 1.407       .   S
C887       C888 1.403       .   D
C888       C889 1.397       .   S
C888       H917 1.083       .   S
C889       C890 1.404       .   D
C889       H918 1.083       .   S
C890       C891 1.400       .   S
C891       H919 1.077       .   S
C891       C892 1.397       .   D
C892       H920 1.083       .   S
C921       C922 1.398       .   S
C926       C921 1.474       .   D
C922       C923 1.402       .   D
C922       H927 1.083       .   S
C923       H928 1.083       .   S
C924       C923 1.410       .   S
C924       C925 1.402       .   D
C925       H929 1.084       .   S
C925       C926 1.389       .   S
C926       H930 1.083       .   S
C931       C932 1.408       .   S
C931       N966 1.361       .   D
C931       C983 1.475       .   S
C932       C933 1.401       .   D
C932       H986 1.083       .   S
C933       C934 1.400       .   S
C933       H987 1.083       .   S
C935       C934 1.407       .   D
C942       C934 1.404       .   S
C935       C936 1.406       .   S
H988       C935 1.083       .   S
C936       C937 1.405       .   D
C936       H989 1.083       .   S
C937       C938 1.406       .   S
C937       C941 1.404       .   S
C938       H990 1.083       .   S
C938       C939 1.406       .   D
C939       C940 1.403       .   S
C939       H991 1.083       .   S
C940       N967 1.355       .   D
C940       C944 1.462       .   S
C941       C942 1.413       .   D
C941       N967 1.357       .   S
N966       C942 1.367       .   S
C943       H992 1.083       .   S
C943       C980 1.476       .   S
N970       C943 1.299       .   D
C944       C945 1.399       .   D
C944       C949 1.400       .   S
C945       C946 1.396       .   S
C945       H993 1.083       .   S
C946       C947 1.404       .   D
C946       H994 1.083       .   S
C947       C950 1.473       .   S
C947       C948 1.406       .   S
C948       C949 1.397       .   D
C948       H995 1.083       .   S
C949       H996 1.083       .   S
C950       H997 1.082       .   S
C950       N971 1.300       .   D
C951      C1014 1.467       .   S
C951       N968 1.357       .   D
C951       C952 1.405       .   S
C952       C953 1.403       .   D
C952       H998 1.083       .   S
C953       H999 1.083       .   S
C953       C954 1.403       .   S
C954       C962 1.404       .   D
C955       C954 1.405       .   S
C955       C956 1.404       .   D
C955      H1000 1.083       .   S
C956      H1001 1.083       .   S
C957       C956 1.406       .   S
C957       C958 1.401       .   S
C957       C961 1.405       .   D
C958       C959 1.402       .   D
C958      H1002 1.083       .   S
C959      H1003 1.083       .   S
C959       C960 1.406       .   S
C960       N969 1.361       .   D
C960       C974 1.470       .   S
C961       C962 1.414       .   S
C961       N969 1.364       .   S
C962       N968 1.361       .   S
C963      H1004 1.083       .   S
C963      C1017 1.474       .   S
C963       N972 1.300       .   D
C964       N973 1.300       .   D
C964       C977 1.473       .   S
C964      H1005 1.084       .   S
Cu965      N968 1.903       .   S
Cu965      N969 1.922       .   S
Cu965      N967 1.902       .   S
N966      Cu965 1.924       .   S
N970      C2204 1.355   1_655   S
N971      C3235 1.260       .   S
N972      C3388 1.326       .   S
N973      C3457 1.210       .   S
C974       C979 1.400       .   D
C975       C974 1.403       .   S
C975      H1006 1.084       .   S
C975       C976 1.395       .   D
C976       C977 1.405       .   S
C976      H1007 1.083       .   S
C978       C977 1.404       .   D
C978      H1008 1.083       .   S
C978       C979 1.397       .   S
C979      H1009 1.079       .   S
C980       C985 1.407       .   S
C980       C981 1.403       .   D
C981       C982 1.397       .   S
C981      H1010 1.083       .   S
C982       C983 1.404       .   D
C982      H1011 1.083       .   S
C983       C984 1.400       .   S
C984      H1012 1.077       .   S
C984       C985 1.397       .   D
C985      H1013 1.083       .   S
C1014     C1015 1.398       .   S
C1019     C1014 1.474       .   D
C1015     C1016 1.402       .   D
C1015     H1020 1.083       .   S
C1016     H1021 1.083       .   S
C1017     C1016 1.410       .   S
C1017     C1018 1.402       .   D
C1018     H1022 1.084       .   S
C1018     C1019 1.389       .   S
C1019     H1023 1.083       .   S
C1024     C1025 1.408       .   S
C1024     N1059 1.361       .   D
C1024     C1076 1.475       .   S
C1025     C1026 1.401       .   D
C1025     H1079 1.083       .   S
C1026     C1027 1.400       .   S
C1026     H1080 1.083       .   S
C1028     C1027 1.407       .   D
C1035     C1027 1.404       .   S
C1028     C1029 1.406       .   S
H1081     C1028 1.083       .   S
C1029     C1030 1.405       .   D
C1029     H1082 1.083       .   S
C1030     C1031 1.406       .   S
C1030     C1034 1.404       .   S
C1031     H1083 1.083       .   S
C1031     C1032 1.406       .   D
C1032     C1033 1.403       .   S
C1032     H1084 1.083       .   S
C1033     N1060 1.355       .   D
C1033     C1037 1.462       .   S
C1034     C1035 1.413       .   D
C1034     N1060 1.357       .   S
N1059     C1035 1.367       .   S
C1036     H1085 1.083       .   S
C1036     C1073 1.476       .   S
N1063     C1036 1.299       .   D
C1037     C1038 1.399       .   D
C1037     C1042 1.400       .   S
C1038     C1039 1.396       .   S
C1038     H1086 1.083       .   S
C1039     C1040 1.404       .   D
C1039     H1087 1.083       .   S
C1040     C1043 1.473       .   S
C1040     C1041 1.406       .   S
C1041     C1042 1.397       .   D
C1041     H1088 1.083       .   S
C1042     H1089 1.083       .   S
C1043     H1090 1.082       .   S
C1043     N1064 1.300       .   D
C1044     C1107 1.467       .   S
C1044     N1061 1.357       .   D
C1044     C1045 1.405       .   S
C1045     C1046 1.403       .   D
C1045     H1091 1.083       .   S
C1046     H1092 1.083       .   S
C1046     C1047 1.403       .   S
C1047     C1055 1.404       .   D
C1048     C1047 1.405       .   S
C1048     C1049 1.404       .   D
C1048     H1093 1.083       .   S
C1049     H1094 1.083       .   S
C1050     C1049 1.406       .   S
C1050     C1051 1.401       .   S
C1050     C1054 1.405       .   D
C1051     C1052 1.402       .   D
C1051     H1095 1.083       .   S
C1052     H1096 1.083       .   S
C1052     C1053 1.406       .   S
C1053     N1062 1.361       .   D
C1053     C1067 1.470       .   S
C1054     C1055 1.414       .   S
C1054     N1062 1.364       .   S
C1055     N1061 1.361       .   S
C1056     H1097 1.083       .   S
C1056     C1110 1.474       .   S
C1056     N1065 1.300       .   D
C1057     N1066 1.300       .   D
C1057     C1070 1.473       .   S
C1057     H1098 1.084       .   S
Cu1058    N1061 1.903       .   S
Cu1058    N1062 1.922       .   S
Cu1058    N1060 1.902       .   S
N1059    Cu1058 1.924       .   S
N1063     C2347 1.356       .   S
N1064     C3536 1.210       .   S
N1065     C3383 1.326       .   S
N1066     C3087 1.185   1_545   S
C1067     C1072 1.400       .   D
C1068     C1067 1.403       .   S
C1068     H1099 1.084       .   S
C1068     C1069 1.395       .   D
C1069     C1070 1.405       .   S
C1069     H1100 1.083       .   S
C1071     C1070 1.404       .   D
C1071     H1101 1.083       .   S
C1071     C1072 1.397       .   S
C1072     H1102 1.079       .   S
C1073     C1078 1.407       .   S
C1073     C1074 1.403       .   D
C1074     C1075 1.397       .   S
C1074     H1103 1.083       .   S
C1075     C1076 1.404       .   D
C1075     H1104 1.083       .   S
C1076     C1077 1.400       .   S
C1077     H1105 1.077       .   S
C1077     C1078 1.397       .   D
C1078     H1106 1.083       .   S
C1107     C1108 1.398       .   S
C1112     C1107 1.474       .   D
C1108     C1109 1.402       .   D
C1108     H1113 1.083       .   S
C1109     H1114 1.083       .   S
C1110     C1109 1.410       .   S
C1110     C1111 1.402       .   D
C1111     H1115 1.084       .   S
C1111     C1112 1.389       .   S
C1112     H1116 1.083       .   S
C1117     C1118 1.408       .   S
C1117     N1152 1.361       .   D
C1117     C1169 1.475       .   S
C1118     C1119 1.401       .   D
C1118     H1172 1.083       .   S
C1119     C1120 1.400       .   S
C1119     H1173 1.083       .   S
C1121     C1120 1.407       .   D
C1128     C1120 1.404       .   S
C1121     C1122 1.406       .   S
H1174     C1121 1.083       .   S
C1122     C1123 1.405       .   D
C1122     H1175 1.083       .   S
C1123     C1124 1.406       .   S
C1123     C1127 1.404       .   S
C1124     H1176 1.083       .   S
C1124     C1125 1.406       .   D
C1125     C1126 1.403       .   S
C1125     H1177 1.083       .   S
C1126     N1153 1.355       .   D
C1126     C1130 1.462       .   S
C1127     C1128 1.413       .   D
C1127     N1153 1.357       .   S
N1152     C1128 1.367       .   S
C1129     H1178 1.083       .   S
C1129     C1166 1.476       .   S
N1156     C1129 1.299       .   D
C1130     C1131 1.399       .   D
C1130     C1135 1.400       .   S
C1131     C1132 1.396       .   S
C1131     H1179 1.083       .   S
C1132     C1133 1.404       .   D
C1132     H1180 1.083       .   S
C1133     C1136 1.473       .   S
C1133     C1134 1.406       .   S
C1134     C1135 1.397       .   D
C1134     H1181 1.083       .   S
C1135     H1182 1.083       .   S
C1136     H1183 1.082       .   S
C1136     N1157 1.300       .   D
C1137     C1200 1.467       .   S
C1137     N1154 1.357       .   D
C1137     C1138 1.405       .   S
C1138     C1139 1.403       .   D
C1138     H1184 1.083       .   S
C1139     H1185 1.083       .   S
C1139     C1140 1.403       .   S
C1140     C1148 1.404       .   D
C1141     C1140 1.405       .   S
C1141     C1142 1.404       .   D
C1141     H1186 1.083       .   S
C1142     H1187 1.083       .   S
C1143     C1142 1.406       .   S
C1143     C1144 1.401       .   S
C1143     C1147 1.405       .   D
C1144     C1145 1.402       .   D
C1144     H1188 1.083       .   S
C1145     H1189 1.083       .   S
C1145     C1146 1.406       .   S
C1146     N1155 1.361       .   D
C1146     C1160 1.470       .   S
C1147     C1148 1.414       .   S
C1147     N1155 1.364       .   S
C1148     N1154 1.361       .   S
C1149     H1190 1.083       .   S
C1149     C1203 1.474       .   S
C1149     N1158 1.300       .   D
C1150     N1159 1.300       .   D
C1150     C1163 1.473       .   S
C1150     H1191 1.084       .   S
Cu1151    N1154 1.903       .   S
Cu1151    N1155 1.922       .   S
Cu1151    N1153 1.902       .   S
N1152    Cu1151 1.924       .   S
N1156     C2574 1.356   1_655   S
N1157     C3462 1.210       .   S
N1158     C3610 1.326       .   S
N1159     C3684 1.185       .   S
C1160     C1165 1.400       .   D
C1161     C1160 1.403       .   S
C1161     H1192 1.084       .   S
C1161     C1162 1.395       .   D
C1162     C1163 1.405       .   S
C1162     H1193 1.083       .   S
C1164     C1163 1.404       .   D
C1164     H1194 1.083       .   S
C1164     C1165 1.397       .   S
C1165     H1195 1.079       .   S
C1166     C1171 1.407       .   S
C1166     C1167 1.403       .   D
C1167     C1168 1.397       .   S
C1167     H1196 1.083       .   S
C1168     C1169 1.404       .   D
C1168     H1197 1.083       .   S
C1169     C1170 1.400       .   S
C1170     H1198 1.077       .   S
C1170     C1171 1.397       .   D
C1171     H1199 1.083       .   S
C1200     C1201 1.398       .   S
C1205     C1200 1.474       .   D
C1201     C1202 1.402       .   D
C1201     H1206 1.083       .   S
C1202     H1207 1.083       .   S
C1203     C1202 1.410       .   S
C1203     C1204 1.402       .   D
C1204     H1208 1.084       .   S
C1204     C1205 1.389       .   S
C1205     H1209 1.083       .   S
C1210     C1211 1.408       .   S
C1210     N1245 1.361       .   D
C1210     C1262 1.475       .   S
C1211     C1212 1.401       .   D
C1211     H1265 1.083       .   S
C1212     C1213 1.400       .   S
C1212     H1266 1.083       .   S
C1214     C1213 1.407       .   D
C1221     C1213 1.404       .   S
C1214     C1215 1.406       .   S
H1267     C1214 1.083       .   S
C1215     C1216 1.405       .   D
C1215     H1268 1.083       .   S
C1216     C1217 1.406       .   S
C1216     C1220 1.404       .   S
C1217     H1269 1.083       .   S
C1217     C1218 1.406       .   D
C1218     C1219 1.403       .   S
C1218     H1270 1.083       .   S
C1219     N1246 1.355       .   D
C1219     C1223 1.462       .   S
C1220     C1221 1.413       .   D
C1220     N1246 1.357       .   S
N1245     C1221 1.367       .   S
C1222     H1271 1.083       .   S
C1222     C1259 1.476       .   S
N1249     C1222 1.299       .   D
C1223     C1224 1.399       .   D
C1223     C1228 1.400       .   S
C1224     C1225 1.396       .   S
C1224     H1272 1.083       .   S
C1225     C1226 1.404       .   D
C1225     H1273 1.083       .   S
C1226     C1229 1.473       .   S
C1226     C1227 1.406       .   S
C1227     C1228 1.397       .   D
C1227     H1274 1.083       .   S
C1228     H1275 1.083       .   S
C1229     H1276 1.082       .   S
C1229     N1250 1.300       .   D
C1230     C1293 1.467       .   S
C1230     N1247 1.357       .   D
C1230     C1231 1.405       .   S
C1231     C1232 1.403       .   D
C1231     H1277 1.083       .   S
C1232     H1278 1.083       .   S
C1232     C1233 1.403       .   S
C1233     C1241 1.404       .   D
C1234     C1233 1.405       .   S
C1234     C1235 1.404       .   D
C1234     H1279 1.083       .   S
C1235     H1280 1.083       .   S
C1236     C1235 1.406       .   S
C1236     C1237 1.401       .   S
C1236     C1240 1.405       .   D
C1237     C1238 1.402       .   D
C1237     H1281 1.083       .   S
C1238     H1282 1.083       .   S
C1238     C1239 1.406       .   S
C1239     N1248 1.361       .   D
C1239     C1253 1.470       .   S
C1240     C1241 1.414       .   S
C1240     N1248 1.364       .   S
C1241     N1247 1.361       .   S
C1242     H1283 1.083       .   S
C1242     C1296 1.474       .   S
C1242     N1251 1.300       .   D
C1243     N1252 1.300       .   D
C1243     C1256 1.473       .   S
C1243     H1284 1.084       .   S
Cu1244    N1247 1.903       .   S
Cu1244    N1248 1.922       .   S
Cu1244    N1246 1.902       .   S
N1245    Cu1244 1.924       .   S
N1249     C2717 1.357       .   S
N1250     C3753 1.262       .   S
N1251     C3605 1.326   1_556   S
N1252     C3531 1.210       .   S
C1253     C1258 1.400       .   D
C1254     C1253 1.403       .   S
C1254     H1285 1.084       .   S
C1254     C1255 1.395       .   D
C1255     C1256 1.405       .   S
C1255     H1286 1.083       .   S
C1257     C1256 1.404       .   D
C1257     H1287 1.083       .   S
C1257     C1258 1.397       .   S
C1258     H1288 1.079       .   S
C1259     C1264 1.407       .   S
C1259     C1260 1.403       .   D
C1260     C1261 1.397       .   S
C1260     H1289 1.083       .   S
C1261     C1262 1.404       .   D
C1261     H1290 1.083       .   S
C1262     C1263 1.400       .   S
C1263     H1291 1.077       .   S
C1263     C1264 1.397       .   D
C1264     H1292 1.083       .   S
C1293     C1294 1.398       .   S
C1298     C1293 1.474       .   D
C1294     C1295 1.402       .   D
C1294     H1299 1.083       .   S
C1295     H1300 1.083       .   S
C1296     C1295 1.410       .   S
C1296     C1297 1.402       .   D
C1297     H1301 1.084       .   S
C1297     C1298 1.389       .   S
C1298     H1302 1.083       .   S
C1303     C1304 1.408       .   S
C1303     N1338 1.361       .   D
C1303     C1355 1.475       .   S
C1304     C1305 1.401       .   D
C1304     H1358 1.083       .   S
C1305     C1306 1.400       .   S
C1305     H1359 1.083       .   S
C1307     C1306 1.407       .   D
C1314     C1306 1.404       .   S
C1307     C1308 1.406       .   S
H1360     C1307 1.083       .   S
C1308     C1309 1.405       .   D
C1308     H1361 1.083       .   S
C1309     C1310 1.406       .   S
C1309     C1313 1.404       .   S
C1310     H1362 1.083       .   S
C1310     C1311 1.406       .   D
C1311     C1312 1.403       .   S
C1311     H1363 1.083       .   S
C1312     N1339 1.355       .   D
C1312     C1316 1.462       .   S
C1313     C1314 1.413       .   D
C1313     N1339 1.357       .   S
N1338     C1314 1.367       .   S
C1315     H1364 1.083       .   S
C1315     C1352 1.476       .   S
N1342     C1315 1.299       .   D
C1316     C1317 1.399       .   D
C1316     C1321 1.400       .   S
C1317     C1318 1.396       .   S
C1317     H1365 1.083       .   S
C1318     C1319 1.404       .   D
C1318     H1366 1.083       .   S
C1319     C1322 1.473       .   S
C1319     C1320 1.406       .   S
C1320     C1321 1.397       .   D
C1320     H1367 1.083       .   S
C1321     H1368 1.083       .   S
C1322     H1369 1.082       .   S
C1322     N1343 1.300       .   D
C1323     C1386 1.467       .   S
C1323     N1340 1.357       .   D
C1323     C1324 1.405       .   S
C1324     C1325 1.403       .   D
C1324     H1370 1.083       .   S
C1325     H1371 1.083       .   S
C1325     C1326 1.403       .   S
C1326     C1334 1.404       .   D
C1327     C1326 1.405       .   S
C1327     C1328 1.404       .   D
C1327     H1372 1.083       .   S
C1328     H1373 1.083       .   S
C1329     C1328 1.406       .   S
C1329     C1330 1.401       .   S
C1329     C1333 1.405       .   D
C1330     C1331 1.402       .   D
C1330     H1374 1.083       .   S
C1331     H1375 1.083       .   S
C1331     C1332 1.406       .   S
C1332     N1341 1.361       .   D
C1332     C1346 1.470       .   S
C1333     C1334 1.414       .   S
C1333     N1341 1.364       .   S
C1334     N1340 1.361       .   S
C1335     H1376 1.083       .   S
C1335     C1389 1.474       .   S
C1335     N1344 1.300       .   D
C1336     N1345 1.300       .   D
C1336     C1349 1.473       .   S
C1336     H1377 1.084       .   S
Cu1337    N1340 1.903       .   S
Cu1337    N1341 1.922       .   S
Cu1337    N1339 1.902       .   S
N1338    Cu1337 1.924       .   S
N1342     C2865 1.355       .   S
N1343     C3758 1.262   1_564   S
N1344     C3827 1.328       .   S
N1345     C3166 1.211       .   S
C1346     C1351 1.400       .   D
C1347     C1346 1.403       .   S
C1347     H1378 1.084       .   S
C1347     C1348 1.395       .   D
C1348     C1349 1.405       .   S
C1348     H1379 1.083       .   S
C1350     C1349 1.404       .   D
C1350     H1380 1.083       .   S
C1350     C1351 1.397       .   S
C1351     H1381 1.079       .   S
C1352     C1357 1.407       .   S
C1352     C1353 1.403       .   D
C1353     C1354 1.397       .   S
C1353     H1382 1.083       .   S
C1354     C1355 1.404       .   D
C1354     H1383 1.083       .   S
C1355     C1356 1.400       .   S
C1356     H1384 1.077       .   S
C1356     C1357 1.397       .   D
C1357     H1385 1.083       .   S
C1386     C1387 1.398       .   S
C1391     C1386 1.474       .   D
C1387     C1388 1.402       .   D
C1387     H1392 1.083       .   S
C1388     H1393 1.083       .   S
C1389     C1388 1.410       .   S
C1389     C1390 1.402       .   D
C1390     H1394 1.084       .   S
C1390     C1391 1.389       .   S
C1391     H1395 1.083       .   S
C1396     C1397 1.408       .   S
C1396     N1431 1.361       .   D
C1396     C1448 1.475       .   S
C1397     C1398 1.401       .   D
C1397     H1451 1.083       .   S
C1398     C1399 1.400       .   S
C1398     H1452 1.083       .   S
C1400     C1399 1.407       .   D
C1407     C1399 1.404       .   S
C1400     C1401 1.406       .   S
H1453     C1400 1.083       .   S
C1401     C1402 1.405       .   D
C1401     H1454 1.083       .   S
C1402     C1403 1.406       .   S
C1402     C1406 1.404       .   S
C1403     H1455 1.083       .   S
C1403     C1404 1.406       .   D
C1404     C1405 1.403       .   S
C1404     H1456 1.083       .   S
C1405     N1432 1.355       .   D
C1405     C1409 1.462       .   S
C1406     C1407 1.413       .   D
C1406     N1432 1.357       .   S
N1431     C1407 1.367       .   S
C1408     H1457 1.083       .   S
C1408     C1445 1.476       .   S
N1435     C1408 1.299       .   D
C1409     C1410 1.399       .   D
C1409     C1414 1.400       .   S
C1410     C1411 1.396       .   S
C1410     H1458 1.083       .   S
C1411     C1412 1.404       .   D
C1411     H1459 1.083       .   S
C1412     C1415 1.473       .   S
C1412     C1413 1.406       .   S
C1413     C1414 1.397       .   D
C1413     H1460 1.083       .   S
C1414     H1461 1.083       .   S
C1415     H1462 1.082       .   S
C1415     N1436 1.300       .   D
C1416     C1479 1.467       .   S
C1416     N1433 1.357       .   D
C1416     C1417 1.405       .   S
C1417     C1418 1.403       .   D
C1417     H1463 1.083       .   S
C1418     H1464 1.083       .   S
C1418     C1419 1.403       .   S
C1419     C1427 1.404       .   D
C1420     C1419 1.405       .   S
C1420     C1421 1.404       .   D
C1420     H1465 1.083       .   S
C1421     H1466 1.083       .   S
C1422     C1421 1.406       .   S
C1422     C1423 1.401       .   S
C1422     C1426 1.405       .   D
C1423     C1424 1.402       .   D
C1423     H1467 1.083       .   S
C1424     H1468 1.083       .   S
C1424     C1425 1.406       .   S
C1425     N1434 1.361       .   D
C1425     C1439 1.470       .   S
C1426     C1427 1.414       .   S
C1426     N1434 1.364       .   S
C1427     N1433 1.361       .   S
C1428     H1469 1.083       .   S
C1428     C1482 1.474       .   S
C1428     N1437 1.300       .   D
C1429     N1438 1.300       .   D
C1429     C1442 1.473       .   S
C1429     H1470 1.084       .   S
Cu1430    N1433 1.903       .   S
Cu1430    N1434 1.922       .   S
Cu1430    N1432 1.902       .   S
N1431    Cu1430 1.924       .   S
N1435     C2939 1.357   1_655   S
N1436     C3309 1.210       .   S
N1437     C3832 1.328   1_556   S
N1438     C3679 1.185   1_556   S
C1439     C1444 1.400       .   D
C1440     C1439 1.403       .   S
C1440     H1471 1.084       .   S
C1440     C1441 1.395       .   D
C1441     C1442 1.405       .   S
C1441     H1472 1.083       .   S
C1443     C1442 1.404       .   D
C1443     H1473 1.083       .   S
C1443     C1444 1.397       .   S
C1444     H1474 1.079       .   S
C1445     C1450 1.407       .   S
C1445     C1446 1.403       .   D
C1446     C1447 1.397       .   S
C1446     H1475 1.083       .   S
C1447     C1448 1.404       .   D
C1447     H1476 1.083       .   S
C1448     C1449 1.400       .   S
C1449     H1477 1.077       .   S
C1449     C1450 1.397       .   D
C1450     H1478 1.083       .   S
C1479     C1480 1.398       .   S
C1484     C1479 1.474       .   D
C1480     C1481 1.402       .   D
C1480     H1485 1.083       .   S
C1481     H1486 1.083       .   S
C1482     C1481 1.410       .   S
C1482     C1483 1.402       .   D
C1483     H1487 1.084       .   S
C1483     C1484 1.389       .   S
C1484     H1488 1.083       .   S
C3783     C3784 1.410       .   S
C3783     C3788 1.386       .   D
C3783     H3835 1.082       .   S
C3784     C3785 1.423       .   S
C3784     C3793 1.415       .   D
C3785     C3786 1.419       .   S
C3785     C3792 1.417       .   D
C3786     C3787 1.412       .   D
C3786     C3789 1.496       .   S
C3787     C3788 1.388       .   S
C3787     H3836 1.076       .   S
C3788     H3837 1.083       .   S
C3789     C3790 1.416       .   S
C3789     C3804 1.412       .   D
C3790     C3791 1.415       .   D
C3790     C3801 1.419       .   S
C3791     C3792 1.422       .   S
C3791     C3796 1.419       .   S
C3792     C3795 1.417       .   S
C3793     C3794 1.413       .   S
C3793     C3823 1.484       .   S
C3794     C3795 1.418       .   D
C3794     C3807 1.412       .   S
C3795     C3798 1.415       .   S
C3796     C3797 1.411       .   D
C3796     C3799 1.418       .   S
C3797     C3798 1.410       .   S
C3797     C3810 1.413       .   S
C3798     C3805 1.415       .   D
C3799     C3800 1.408       .   S
C3799     C3812 1.414       .   D
C3800     C3801 1.414       .   D
C3800     C3816 1.420       .   S
C3801     C3802 1.412       .   S
C3802     C3803 1.394       .   D
C3802     C3818 1.397       .   S
C3803     C3804 1.389       .   S
C3803     H3838 1.084       .   S
C3804     H3839 1.076       .   S
C3805     C3806 1.395       .   S
C3805     C3808 1.400       .   S
C3806     C3807 1.390       .   D
C3806     H3840 1.084       .   S
C3807     H3841 1.082       .   S
C3808     C3809 1.398       .   D
C3808     H3842 1.085       .   S
C3809     C3810 1.414       .   S
C3809     C3813 1.402       .   S
C3810     C3811 1.410       .   D
C3811     C3812 1.413       .   S
C3811     C3815 1.413       .   S
C3812     C3819 1.417       .   S
C3813     C3814 1.395       .   D
C3813     H3843 1.084       .   S
C3814     C3815 1.401       .   S
C3814     H3844 1.084       .   S
C3815     C3821 1.397       .   D
C3816     C3817 1.410       .   S
C3816     C3820 1.417       .   D
C3817     C3818 1.390       .   D
C3817     H3845 1.082       .   S
C3818     H3846 1.084       .   S
C3819     C3820 1.415       .   S
C3819     C3822 1.412       .   D
C3820     C3824 1.483       .   S
C3821     C3822 1.393       .   S
C3821     H3847 1.084       .   S
C3822     H3848 1.082       .   S
C3823     C3825 1.403       .   S
C3823     C3829 1.403       .   D
C3824     C3830 1.403       .   D
C3824     C3834 1.403       .   S
C3825     C3826 1.398       .   D
C3825     H3849 1.083       .   S
C3826     C3827 1.398       .   S
C3826     H3850 1.082       .   S
C3827     C3828 1.398       .   D
C3828     C3829 1.398       .   S
C3828     H3852 1.082       .   S
C3829     H3853 1.083       .   S
C3830     C3831 1.398       .   S
C3830     H3854 1.084       .   S
C3831     C3832 1.399       .   D
C3831     H3855 1.083       .   S
C3832     C3833 1.399       .   S
C3833     C3834 1.399       .   D
C3833     H3857 1.083       .   S
C3834     H3858 1.084       .   S
C3709     C3710 1.410       .   S
C3709     C3714 1.386       .   D
C3709     H3761 1.082       .   S
C3710     C3711 1.423       .   S
C3710     C3719 1.415       .   D
C3711     C3712 1.419       .   S
C3711     C3718 1.417       .   D
C3712     C3713 1.412       .   D
C3712     C3715 1.496       .   S
C3713     C3714 1.388       .   S
C3713     H3762 1.076       .   S
C3714     H3763 1.083       .   S
C3715     C3716 1.416       .   S
C3715     C3730 1.412       .   D
C3716     C3717 1.415       .   D
C3716     C3727 1.419       .   S
C3717     C3718 1.422       .   S
C3717     C3722 1.419       .   S
C3718     C3721 1.417       .   S
C3719     C3720 1.413       .   S
C3719     C3749 1.484       .   S
C3720     C3721 1.418       .   D
C3720     C3733 1.412       .   S
C3721     C3724 1.415       .   S
C3722     C3723 1.411       .   D
C3722     C3725 1.418       .   S
C3723     C3724 1.410       .   S
C3723     C3736 1.413       .   S
C3724     C3731 1.415       .   D
C3725     C3726 1.408       .   S
C3725     C3738 1.414       .   D
C3726     C3727 1.414       .   D
C3726     C3742 1.420       .   S
C3727     C3728 1.412       .   S
C3728     C3729 1.394       .   D
C3728     C3744 1.397       .   S
C3729     C3730 1.389       .   S
C3729     H3764 1.084       .   S
C3730     H3765 1.076       .   S
C3731     C3732 1.395       .   S
C3731     C3734 1.400       .   S
C3732     C3733 1.390       .   D
C3732     H3766 1.084       .   S
C3733     H3767 1.082       .   S
C3734     C3735 1.398       .   D
C3734     H3768 1.085       .   S
C3735     C3736 1.414       .   S
C3735     C3739 1.402       .   S
C3736     C3737 1.410       .   D
C3737     C3738 1.413       .   S
C3737     C3741 1.413       .   S
C3738     C3745 1.417       .   S
C3739     C3740 1.395       .   D
C3739     H3769 1.084       .   S
C3740     C3741 1.401       .   S
C3740     H3770 1.084       .   S
C3741     C3747 1.397       .   D
C3742     C3743 1.410       .   S
C3742     C3746 1.417       .   D
C3743     C3744 1.390       .   D
C3743     H3771 1.082       .   S
C3744     H3772 1.084       .   S
C3745     C3746 1.415       .   S
C3745     C3748 1.412       .   D
C3746     C3750 1.483       .   S
C3747     C3748 1.393       .   S
C3747     H3773 1.084       .   S
C3748     H3774 1.082       .   S
C3749     C3751 1.403       .   S
C3749     C3755 1.403       .   D
C3750     C3756 1.403       .   D
C3750     C3760 1.403       .   S
C3751     C3752 1.398       .   D
C3751     H3775 1.083       .   S
C3752     C3753 1.398       .   S
C3752     H3776 1.082       .   S
C3753     C3754 1.398       .   D
C3754     C3755 1.398       .   S
C3754     H3778 1.082       .   S
C3755     H3779 1.083       .   S
C3756     C3757 1.398       .   S
C3756     H3780 1.084       .   S
C3757     C3758 1.399       .   D
C3757     H3781 1.083       .   S
C3758     C3759 1.399       .   S
C3759     C3760 1.399       .   D
C3759     H3783 1.083       .   S
C3760     H3784 1.084       .   S
C3635     C3636 1.410       .   S
C3635     C3640 1.386       .   D
C3635     H3687 1.082       .   S
C3636     C3637 1.423       .   S
C3636     C3645 1.415       .   D
C3637     C3638 1.419       .   S
C3637     C3644 1.417       .   D
C3638     C3639 1.412       .   D
C3638     C3641 1.496       .   S
C3639     C3640 1.388       .   S
C3639     H3688 1.076       .   S
C3640     H3689 1.083       .   S
C3641     C3642 1.416       .   S
C3641     C3656 1.412       .   D
C3642     C3643 1.415       .   D
C3642     C3653 1.419       .   S
C3643     C3644 1.422       .   S
C3643     C3648 1.419       .   S
C3644     C3647 1.417       .   S
C3645     C3646 1.413       .   S
C3645     C3675 1.484       .   S
C3646     C3647 1.418       .   D
C3646     C3659 1.412       .   S
C3647     C3650 1.415       .   S
C3648     C3649 1.411       .   D
C3648     C3651 1.418       .   S
C3649     C3650 1.410       .   S
C3649     C3662 1.413       .   S
C3650     C3657 1.415       .   D
C3651     C3652 1.408       .   S
C3651     C3664 1.414       .   D
C3652     C3653 1.414       .   D
C3652     C3668 1.420       .   S
C3653     C3654 1.412       .   S
C3654     C3655 1.394       .   D
C3654     C3670 1.397       .   S
C3655     C3656 1.389       .   S
C3655     H3690 1.084       .   S
C3656     H3691 1.076       .   S
C3657     C3658 1.395       .   S
C3657     C3660 1.400       .   S
C3658     C3659 1.390       .   D
C3658     H3692 1.084       .   S
C3659     H3693 1.082       .   S
C3660     C3661 1.398       .   D
C3660     H3694 1.085       .   S
C3661     C3662 1.414       .   S
C3661     C3665 1.402       .   S
C3662     C3663 1.410       .   D
C3663     C3664 1.413       .   S
C3663     C3667 1.413       .   S
C3664     C3671 1.417       .   S
C3665     C3666 1.395       .   D
C3665     H3695 1.084       .   S
C3666     C3667 1.401       .   S
C3666     H3696 1.084       .   S
C3667     C3673 1.397       .   D
C3668     C3669 1.410       .   S
C3668     C3672 1.417       .   D
C3669     C3670 1.390       .   D
C3669     H3697 1.082       .   S
C3670     H3698 1.084       .   S
C3671     C3672 1.415       .   S
C3671     C3674 1.412       .   D
C3672     C3676 1.483       .   S
C3673     C3674 1.393       .   S
C3673     H3699 1.084       .   S
C3674     H3700 1.082       .   S
C3675     C3677 1.403       .   S
C3675     C3681 1.403       .   D
C3676     C3682 1.403       .   D
C3676     C3686 1.403       .   S
C3677     C3678 1.398       .   D
C3677     H3701 1.083       .   S
C3678     C3679 1.398       .   S
C3678     H3702 1.082       .   S
C3679     C3680 1.398       .   D
C3680     C3681 1.398       .   S
C3680     H3704 1.082       .   S
C3681     H3705 1.083       .   S
C3682     C3683 1.398       .   S
C3682     H3706 1.084       .   S
C3683     C3684 1.399       .   D
C3683     H3707 1.083       .   S
C3684     C3685 1.399       .   S
C3685     C3686 1.399       .   D
C3685     H3709 1.083       .   S
C3686     H3710 1.084       .   S
C3561     C3562 1.410       .   S
C3561     C3566 1.386       .   D
C3561     H3613 1.082       .   S
C3562     C3563 1.423       .   S
C3562     C3571 1.415       .   D
C3563     C3564 1.419       .   S
C3563     C3570 1.417       .   D
C3564     C3565 1.412       .   D
C3564     C3567 1.496       .   S
C3565     C3566 1.388       .   S
C3565     H3614 1.076       .   S
C3566     H3615 1.083       .   S
C3567     C3568 1.416       .   S
C3567     C3582 1.412       .   D
C3568     C3569 1.415       .   D
C3568     C3579 1.419       .   S
C3569     C3570 1.422       .   S
C3569     C3574 1.419       .   S
C3570     C3573 1.417       .   S
C3571     C3572 1.413       .   S
C3571     C3601 1.484       .   S
C3572     C3573 1.418       .   D
C3572     C3585 1.412       .   S
C3573     C3576 1.415       .   S
C3574     C3575 1.411       .   D
C3574     C3577 1.418       .   S
C3575     C3576 1.410       .   S
C3575     C3588 1.413       .   S
C3576     C3583 1.415       .   D
C3577     C3578 1.408       .   S
C3577     C3590 1.414       .   D
C3578     C3579 1.414       .   D
C3578     C3594 1.420       .   S
C3579     C3580 1.412       .   S
C3580     C3581 1.394       .   D
C3580     C3596 1.397       .   S
C3581     C3582 1.389       .   S
C3581     H3616 1.084       .   S
C3582     H3617 1.076       .   S
C3583     C3584 1.395       .   S
C3583     C3586 1.400       .   S
C3584     C3585 1.390       .   D
C3584     H3618 1.084       .   S
C3585     H3619 1.082       .   S
C3586     C3587 1.398       .   D
C3586     H3620 1.085       .   S
C3587     C3588 1.414       .   S
C3587     C3591 1.402       .   S
C3588     C3589 1.410       .   D
C3589     C3590 1.413       .   S
C3589     C3593 1.413       .   S
C3590     C3597 1.417       .   S
C3591     C3592 1.395       .   D
C3591     H3621 1.084       .   S
C3592     C3593 1.401       .   S
C3592     H3622 1.084       .   S
C3593     C3599 1.397       .   D
C3594     C3595 1.410       .   S
C3594     C3598 1.417       .   D
C3595     C3596 1.390       .   D
C3595     H3623 1.082       .   S
C3596     H3624 1.084       .   S
C3597     C3598 1.415       .   S
C3597     C3600 1.412       .   D
C3598     C3602 1.483       .   S
C3599     C3600 1.393       .   S
C3599     H3625 1.084       .   S
C3600     H3626 1.082       .   S
C3601     C3603 1.403       .   S
C3601     C3607 1.403       .   D
C3602     C3608 1.403       .   D
C3602     C3612 1.403       .   S
C3603     C3604 1.398       .   D
C3603     H3627 1.083       .   S
C3604     C3605 1.398       .   S
C3604     H3628 1.082       .   S
C3605     C3606 1.398       .   D
C3606     C3607 1.398       .   S
C3606     H3630 1.082       .   S
C3607     H3631 1.083       .   S
C3608     C3609 1.398       .   S
C3608     H3632 1.084       .   S
C3609     C3610 1.399       .   D
C3609     H3633 1.083       .   S
C3610     C3611 1.399       .   S
C3611     C3612 1.399       .   D
C3611     H3635 1.083       .   S
C3612     H3636 1.084       .   S
C3487     C3488 1.410       .   S
C3487     C3492 1.386       .   D
C3487     H3539 1.082       .   S
C3488     C3489 1.423       .   S
C3488     C3497 1.415       .   D
C3489     C3490 1.419       .   S
C3489     C3496 1.417       .   D
C3490     C3491 1.412       .   D
C3490     C3493 1.496       .   S
C3491     C3492 1.388       .   S
C3491     H3540 1.076       .   S
C3492     H3541 1.083       .   S
C3493     C3494 1.416       .   S
C3493     C3508 1.412       .   D
C3494     C3495 1.415       .   D
C3494     C3505 1.419       .   S
C3495     C3496 1.422       .   S
C3495     C3500 1.419       .   S
C3496     C3499 1.417       .   S
C3497     C3498 1.413       .   S
C3497     C3527 1.484       .   S
C3498     C3499 1.418       .   D
C3498     C3511 1.412       .   S
C3499     C3502 1.415       .   S
C3500     C3501 1.411       .   D
C3500     C3503 1.418       .   S
C3501     C3502 1.410       .   S
C3501     C3514 1.413       .   S
C3502     C3509 1.415       .   D
C3503     C3504 1.408       .   S
C3503     C3516 1.414       .   D
C3504     C3505 1.414       .   D
C3504     C3520 1.420       .   S
C3505     C3506 1.412       .   S
C3506     C3507 1.394       .   D
C3506     C3522 1.397       .   S
C3507     C3508 1.389       .   S
C3507     H3542 1.084       .   S
C3508     H3543 1.076       .   S
C3509     C3510 1.395       .   S
C3509     C3512 1.400       .   S
C3510     C3511 1.390       .   D
C3510     H3544 1.084       .   S
C3511     H3545 1.082       .   S
C3512     C3513 1.398       .   D
C3512     H3546 1.085       .   S
C3513     C3514 1.414       .   S
C3513     C3517 1.402       .   S
C3514     C3515 1.410       .   D
C3515     C3516 1.413       .   S
C3515     C3519 1.413       .   S
C3516     C3523 1.417       .   S
C3517     C3518 1.395       .   D
C3517     H3547 1.084       .   S
C3518     C3519 1.401       .   S
C3518     H3548 1.084       .   S
C3519     C3525 1.397       .   D
C3520     C3521 1.410       .   S
C3520     C3524 1.417       .   D
C3521     C3522 1.390       .   D
C3521     H3549 1.082       .   S
C3522     H3550 1.084       .   S
C3523     C3524 1.415       .   S
C3523     C3526 1.412       .   D
C3524     C3528 1.483       .   S
C3525     C3526 1.393       .   S
C3525     H3551 1.084       .   S
C3526     H3552 1.082       .   S
C3527     C3529 1.403       .   S
C3527     C3533 1.403       .   D
C3528     C3534 1.403       .   D
C3528     C3538 1.403       .   S
C3529     C3530 1.398       .   D
C3529     H3553 1.083       .   S
C3530     C3531 1.398       .   S
C3530     H3554 1.082       .   S
C3531     C3532 1.398       .   D
C3532     C3533 1.398       .   S
C3532     H3556 1.082       .   S
C3533     H3557 1.083       .   S
C3534     C3535 1.398       .   S
C3534     H3558 1.084       .   S
C3535     C3536 1.399       .   D
C3535     H3559 1.083       .   S
C3536     C3537 1.399       .   S
C3537     C3538 1.399       .   D
C3537     H3561 1.083       .   S
C3538     H3562 1.084       .   S
C3413     C3414 1.410       .   S
C3413     C3418 1.386       .   D
C3413     H3465 1.082       .   S
C3414     C3415 1.423       .   S
C3414     C3423 1.415       .   D
C3415     C3416 1.419       .   S
C3415     C3422 1.417       .   D
C3416     C3417 1.412       .   D
C3416     C3419 1.496       .   S
C3417     C3418 1.388       .   S
C3417     H3466 1.076       .   S
C3418     H3467 1.083       .   S
C3419     C3420 1.416       .   S
C3419     C3434 1.412       .   D
C3420     C3421 1.415       .   D
C3420     C3431 1.419       .   S
C3421     C3422 1.422       .   S
C3421     C3426 1.419       .   S
C3422     C3425 1.417       .   S
C3423     C3424 1.413       .   S
C3423     C3453 1.484       .   S
C3424     C3425 1.418       .   D
C3424     C3437 1.412       .   S
C3425     C3428 1.415       .   S
C3426     C3427 1.411       .   D
C3426     C3429 1.418       .   S
C3427     C3428 1.410       .   S
C3427     C3440 1.413       .   S
C3428     C3435 1.415       .   D
C3429     C3430 1.408       .   S
C3429     C3442 1.414       .   D
C3430     C3431 1.414       .   D
C3430     C3446 1.420       .   S
C3431     C3432 1.412       .   S
C3432     C3433 1.394       .   D
C3432     C3448 1.397       .   S
C3433     C3434 1.389       .   S
C3433     H3468 1.084       .   S
C3434     H3469 1.076       .   S
C3435     C3436 1.395       .   S
C3435     C3438 1.400       .   S
C3436     C3437 1.390       .   D
C3436     H3470 1.084       .   S
C3437     H3471 1.082       .   S
C3438     C3439 1.398       .   D
C3438     H3472 1.085       .   S
C3439     C3440 1.414       .   S
C3439     C3443 1.402       .   S
C3440     C3441 1.410       .   D
C3441     C3442 1.413       .   S
C3441     C3445 1.413       .   S
C3442     C3449 1.417       .   S
C3443     C3444 1.395       .   D
C3443     H3473 1.084       .   S
C3444     C3445 1.401       .   S
C3444     H3474 1.084       .   S
C3445     C3451 1.397       .   D
C3446     C3447 1.410       .   S
C3446     C3450 1.417       .   D
C3447     C3448 1.390       .   D
C3447     H3475 1.082       .   S
C3448     H3476 1.084       .   S
C3449     C3450 1.415       .   S
C3449     C3452 1.412       .   D
C3450     C3454 1.483       .   S
C3451     C3452 1.393       .   S
C3451     H3477 1.084       .   S
C3452     H3478 1.082       .   S
C3453     C3455 1.403       .   S
C3453     C3459 1.403       .   D
C3454     C3460 1.403       .   D
C3454     C3464 1.403       .   S
C3455     C3456 1.398       .   D
C3455     H3479 1.083       .   S
C3456     C3457 1.398       .   S
C3456     H3480 1.082       .   S
C3457     C3458 1.398       .   D
C3458     C3459 1.398       .   S
C3458     H3482 1.082       .   S
C3459     H3483 1.083       .   S
C3460     C3461 1.398       .   S
C3460     H3484 1.084       .   S
C3461     C3462 1.399       .   D
C3461     H3485 1.083       .   S
C3462     C3463 1.399       .   S
C3463     C3464 1.399       .   D
C3463     H3487 1.083       .   S
C3464     H3488 1.084       .   S
C3339     C3340 1.410       .   S
C3339     C3344 1.386       .   D
C3339     H3391 1.082       .   S
C3340     C3341 1.423       .   S
C3340     C3349 1.415       .   D
C3341     C3342 1.419       .   S
C3341     C3348 1.417       .   D
C3342     C3343 1.412       .   D
C3342     C3345 1.496       .   S
C3343     C3344 1.388       .   S
C3343     H3392 1.076       .   S
C3344     H3393 1.083       .   S
C3345     C3346 1.416       .   S
C3345     C3360 1.412       .   D
C3346     C3347 1.415       .   D
C3346     C3357 1.419       .   S
C3347     C3348 1.422       .   S
C3347     C3352 1.419       .   S
C3348     C3351 1.417       .   S
C3349     C3350 1.413       .   S
C3349     C3379 1.484       .   S
C3350     C3351 1.418       .   D
C3350     C3363 1.412       .   S
C3351     C3354 1.415       .   S
C3352     C3353 1.411       .   D
C3352     C3355 1.418       .   S
C3353     C3354 1.410       .   S
C3353     C3366 1.413       .   S
C3354     C3361 1.415       .   D
C3355     C3356 1.408       .   S
C3355     C3368 1.414       .   D
C3356     C3357 1.414       .   D
C3356     C3372 1.420       .   S
C3357     C3358 1.412       .   S
C3358     C3359 1.394       .   D
C3358     C3374 1.397       .   S
C3359     C3360 1.389       .   S
C3359     H3394 1.084       .   S
C3360     H3395 1.076       .   S
C3361     C3362 1.395       .   S
C3361     C3364 1.400       .   S
C3362     C3363 1.390       .   D
C3362     H3396 1.084       .   S
C3363     H3397 1.082       .   S
C3364     C3365 1.398       .   D
C3364     H3398 1.085       .   S
C3365     C3366 1.414       .   S
C3365     C3369 1.402       .   S
C3366     C3367 1.410       .   D
C3367     C3368 1.413       .   S
C3367     C3371 1.413       .   S
C3368     C3375 1.417       .   S
C3369     C3370 1.395       .   D
C3369     H3399 1.084       .   S
C3370     C3371 1.401       .   S
C3370     H3400 1.084       .   S
C3371     C3377 1.397       .   D
C3372     C3373 1.410       .   S
C3372     C3376 1.417       .   D
C3373     C3374 1.390       .   D
C3373     H3401 1.082       .   S
C3374     H3402 1.084       .   S
C3375     C3376 1.415       .   S
C3375     C3378 1.412       .   D
C3376     C3380 1.483       .   S
C3377     C3378 1.393       .   S
C3377     H3403 1.084       .   S
C3378     H3404 1.082       .   S
C3379     C3381 1.403       .   S
C3379     C3385 1.403       .   D
C3380     C3386 1.403       .   D
C3380     C3390 1.403       .   S
C3381     C3382 1.398       .   D
C3381     H3405 1.083       .   S
C3382     C3383 1.398       .   S
C3382     H3406 1.082       .   S
C3383     C3384 1.398       .   D
C3384     C3385 1.398       .   S
C3384     H3408 1.082       .   S
C3385     H3409 1.083       .   S
C3386     C3387 1.398       .   S
C3386     H3410 1.084       .   S
C3387     C3388 1.399       .   D
C3387     H3411 1.083       .   S
C3388     C3389 1.399       .   S
C3389     C3390 1.399       .   D
C3389     H3413 1.083       .   S
C3390     H3414 1.084       .   S
C3265     C3266 1.410       .   S
C3265     C3270 1.386       .   D
C3265     H3317 1.082       .   S
C3266     C3267 1.423       .   S
C3266     C3275 1.415       .   D
C3267     C3268 1.419       .   S
C3267     C3274 1.417       .   D
C3268     C3269 1.412       .   D
C3268     C3271 1.496       .   S
C3269     C3270 1.388       .   S
C3269     H3318 1.076       .   S
C3270     H3319 1.083       .   S
C3271     C3272 1.416       .   S
C3271     C3286 1.412       .   D
C3272     C3273 1.415       .   D
C3272     C3283 1.419       .   S
C3273     C3274 1.422       .   S
C3273     C3278 1.419       .   S
C3274     C3277 1.417       .   S
C3275     C3276 1.413       .   S
C3275     C3305 1.484       .   S
C3276     C3277 1.418       .   D
C3276     C3289 1.412       .   S
C3277     C3280 1.415       .   S
C3278     C3279 1.411       .   D
C3278     C3281 1.418       .   S
C3279     C3280 1.410       .   S
C3279     C3292 1.413       .   S
C3280     C3287 1.415       .   D
C3281     C3282 1.408       .   S
C3281     C3294 1.414       .   D
C3282     C3283 1.414       .   D
C3282     C3298 1.420       .   S
C3283     C3284 1.412       .   S
C3284     C3285 1.394       .   D
C3284     C3300 1.397       .   S
C3285     C3286 1.389       .   S
C3285     H3320 1.084       .   S
C3286     H3321 1.076       .   S
C3287     C3288 1.395       .   S
C3287     C3290 1.400       .   S
C3288     C3289 1.390       .   D
C3288     H3322 1.084       .   S
C3289     H3323 1.082       .   S
C3290     C3291 1.398       .   D
C3290     H3324 1.085       .   S
C3291     C3292 1.414       .   S
C3291     C3295 1.402       .   S
C3292     C3293 1.410       .   D
C3293     C3294 1.413       .   S
C3293     C3297 1.413       .   S
C3294     C3301 1.417       .   S
C3295     C3296 1.395       .   D
C3295     H3325 1.084       .   S
C3296     C3297 1.401       .   S
C3296     H3326 1.084       .   S
C3297     C3303 1.397       .   D
C3298     C3299 1.410       .   S
C3298     C3302 1.417       .   D
C3299     C3300 1.390       .   D
C3299     H3327 1.082       .   S
C3300     H3328 1.084       .   S
C3301     C3302 1.415       .   S
C3301     C3304 1.412       .   D
C3302     C3306 1.483       .   S
C3303     C3304 1.393       .   S
C3303     H3329 1.084       .   S
C3304     H3330 1.082       .   S
C3305     C3307 1.403       .   S
C3305     C3311 1.403       .   D
C3306     C3312 1.403       .   D
C3306     C3316 1.403       .   S
C3307     C3308 1.398       .   D
C3307     H3331 1.083       .   S
C3308     C3309 1.398       .   S
C3308     H3332 1.082       .   S
C3309     C3310 1.398       .   D
C3310     C3311 1.398       .   S
C3310     H3334 1.082       .   S
C3311     H3335 1.083       .   S
C3312     C3313 1.398       .   S
C3312     H3336 1.084       .   S
C3313     C3314 1.399       .   D
C3313     H3337 1.083       .   S
C3314     C3315 1.399       .   S
C3315     C3316 1.399       .   D
C3315     H3339 1.083       .   S
C3316     H3340 1.084       .   S
C3191     C3192 1.410       .   S
C3191     C3196 1.386       .   D
C3191     H3243 1.082       .   S
C3192     C3193 1.423       .   S
C3192     C3201 1.415       .   D
C3193     C3194 1.419       .   S
C3193     C3200 1.417       .   D
C3194     C3195 1.412       .   D
C3194     C3197 1.496       .   S
C3195     C3196 1.388       .   S
C3195     H3244 1.076       .   S
C3196     H3245 1.083       .   S
C3197     C3198 1.416       .   S
C3197     C3212 1.412       .   D
C3198     C3199 1.415       .   D
C3198     C3209 1.419       .   S
C3199     C3200 1.422       .   S
C3199     C3204 1.419       .   S
C3200     C3203 1.417       .   S
C3201     C3202 1.413       .   S
C3201     C3231 1.484       .   S
C3202     C3203 1.418       .   D
C3202     C3215 1.412       .   S
C3203     C3206 1.415       .   S
C3204     C3205 1.411       .   D
C3204     C3207 1.418       .   S
C3205     C3206 1.410       .   S
C3205     C3218 1.413       .   S
C3206     C3213 1.415       .   D
C3207     C3208 1.408       .   S
C3207     C3220 1.414       .   D
C3208     C3209 1.414       .   D
C3208     C3224 1.420       .   S
C3209     C3210 1.412       .   S
C3210     C3211 1.394       .   D
C3210     C3226 1.397       .   S
C3211     C3212 1.389       .   S
C3211     H3246 1.084       .   S
C3212     H3247 1.076       .   S
C3213     C3214 1.395       .   S
C3213     C3216 1.400       .   S
C3214     C3215 1.390       .   D
C3214     H3248 1.084       .   S
C3215     H3249 1.082       .   S
C3216     C3217 1.398       .   D
C3216     H3250 1.085       .   S
C3217     C3218 1.414       .   S
C3217     C3221 1.402       .   S
C3218     C3219 1.410       .   D
C3219     C3220 1.413       .   S
C3219     C3223 1.413       .   S
C3220     C3227 1.417       .   S
C3221     C3222 1.395       .   D
C3221     H3251 1.084       .   S
C3222     C3223 1.401       .   S
C3222     H3252 1.084       .   S
C3223     C3229 1.397       .   D
C3224     C3225 1.410       .   S
C3224     C3228 1.417       .   D
C3225     C3226 1.390       .   D
C3225     H3253 1.082       .   S
C3226     H3254 1.084       .   S
C3227     C3228 1.415       .   S
C3227     C3230 1.412       .   D
C3228     C3232 1.483       .   S
C3229     C3230 1.393       .   S
C3229     H3255 1.084       .   S
C3230     H3256 1.082       .   S
C3231     C3233 1.403       .   S
C3231     C3237 1.403       .   D
C3232     C3238 1.403       .   D
C3232     C3242 1.403       .   S
C3233     C3234 1.398       .   D
C3233     H3257 1.083       .   S
C3234     C3235 1.398       .   S
C3234     H3258 1.082       .   S
C3235     C3236 1.398       .   D
C3236     C3237 1.398       .   S
C3236     H3260 1.082       .   S
C3237     H3261 1.083       .   S
C3238     C3239 1.398       .   S
C3238     H3262 1.084       .   S
C3239     C3240 1.399       .   D
C3239     H3263 1.083       .   S
C3240     C3241 1.399       .   S
C3241     C3242 1.399       .   D
C3241     H3265 1.083       .   S
C3242     H3266 1.084       .   S
C3117     C3118 1.410       .   S
C3117     C3122 1.386       .   D
C3117     H3169 1.082       .   S
C3118     C3119 1.423       .   S
C3118     C3127 1.415       .   D
C3119     C3120 1.419       .   S
C3119     C3126 1.417       .   D
C3120     C3121 1.412       .   D
C3120     C3123 1.496       .   S
C3121     C3122 1.388       .   S
C3121     H3170 1.076       .   S
C3122     H3171 1.083       .   S
C3123     C3124 1.416       .   S
C3123     C3138 1.412       .   D
C3124     C3125 1.415       .   D
C3124     C3135 1.419       .   S
C3125     C3126 1.422       .   S
C3125     C3130 1.419       .   S
C3126     C3129 1.417       .   S
C3127     C3128 1.413       .   S
C3127     C3157 1.484       .   S
C3128     C3129 1.418       .   D
C3128     C3141 1.412       .   S
C3129     C3132 1.415       .   S
C3130     C3131 1.411       .   D
C3130     C3133 1.418       .   S
C3131     C3132 1.410       .   S
C3131     C3144 1.413       .   S
C3132     C3139 1.415       .   D
C3133     C3134 1.408       .   S
C3133     C3146 1.414       .   D
C3134     C3135 1.414       .   D
C3134     C3150 1.420       .   S
C3135     C3136 1.412       .   S
C3136     C3137 1.394       .   D
C3136     C3152 1.397       .   S
C3137     C3138 1.389       .   S
C3137     H3172 1.084       .   S
C3138     H3173 1.076       .   S
C3139     C3140 1.395       .   S
C3139     C3142 1.400       .   S
C3140     C3141 1.390       .   D
C3140     H3174 1.084       .   S
C3141     H3175 1.082       .   S
C3142     C3143 1.398       .   D
C3142     H3176 1.085       .   S
C3143     C3144 1.414       .   S
C3143     C3147 1.402       .   S
C3144     C3145 1.410       .   D
C3145     C3146 1.413       .   S
C3145     C3149 1.413       .   S
C3146     C3153 1.417       .   S
C3147     C3148 1.395       .   D
C3147     H3177 1.084       .   S
C3148     C3149 1.401       .   S
C3148     H3178 1.084       .   S
C3149     C3155 1.397       .   D
C3150     C3151 1.410       .   S
C3150     C3154 1.417       .   D
C3151     C3152 1.390       .   D
C3151     H3179 1.082       .   S
C3152     H3180 1.084       .   S
C3153     C3154 1.415       .   S
C3153     C3156 1.412       .   D
C3154     C3158 1.483       .   S
C3155     C3156 1.393       .   S
C3155     H3181 1.084       .   S
C3156     H3182 1.082       .   S
C3157     C3159 1.403       .   S
C3157     C3163 1.403       .   D
C3158     C3164 1.403       .   D
C3158     C3168 1.403       .   S
C3159     C3160 1.398       .   D
C3159     H3183 1.083       .   S
C3160     C3161 1.398       .   S
C3160     H3184 1.082       .   S
C3161     C3162 1.398       .   D
C3162     C3163 1.398       .   S
C3162     H3186 1.082       .   S
C3163     H3187 1.083       .   S
C3164     C3165 1.398       .   S
C3164     H3188 1.084       .   S
C3165     C3166 1.399       .   D
C3165     H3189 1.083       .   S
C3166     C3167 1.399       .   S
C3167     C3168 1.399       .   D
C3167     H3191 1.083       .   S
C3168     H3192 1.084       .   S
C3043     C3044 1.410       .   S
C3043     C3048 1.386       .   D
C3043     H3095 1.082       .   S
C3044     C3045 1.423       .   S
C3044     C3053 1.415       .   D
C3045     C3046 1.419       .   S
C3045     C3052 1.417       .   D
C3046     C3047 1.412       .   D
C3046     C3049 1.496       .   S
C3047     C3048 1.388       .   S
C3047     H3096 1.076       .   S
C3048     H3097 1.083       .   S
C3049     C3050 1.416       .   S
C3049     C3064 1.412       .   D
C3050     C3051 1.415       .   D
C3050     C3061 1.419       .   S
C3051     C3052 1.422       .   S
C3051     C3056 1.419       .   S
C3052     C3055 1.417       .   S
C3053     C3054 1.413       .   S
C3053     C3083 1.484       .   S
C3054     C3055 1.418       .   D
C3054     C3067 1.412       .   S
C3055     C3058 1.415       .   S
C3056     C3057 1.411       .   D
C3056     C3059 1.418       .   S
C3057     C3058 1.410       .   S
C3057     C3070 1.413       .   S
C3058     C3065 1.415       .   D
C3059     C3060 1.408       .   S
C3059     C3072 1.414       .   D
C3060     C3061 1.414       .   D
C3060     C3076 1.420       .   S
C3061     C3062 1.412       .   S
C3062     C3063 1.394       .   D
C3062     C3078 1.397       .   S
C3063     C3064 1.389       .   S
C3063     H3098 1.084       .   S
C3064     H3099 1.076       .   S
C3065     C3066 1.395       .   S
C3065     C3068 1.400       .   S
C3066     C3067 1.390       .   D
C3066     H3100 1.084       .   S
C3067     H3101 1.082       .   S
C3068     C3069 1.398       .   D
C3068     H3102 1.085       .   S
C3069     C3070 1.414       .   S
C3069     C3073 1.402       .   S
C3070     C3071 1.410       .   D
C3071     C3072 1.413       .   S
C3071     C3075 1.413       .   S
C3072     C3079 1.417       .   S
C3073     C3074 1.395       .   D
C3073     H3103 1.084       .   S
C3074     C3075 1.401       .   S
C3074     H3104 1.084       .   S
C3075     C3081 1.397       .   D
C3076     C3077 1.410       .   S
C3076     C3080 1.417       .   D
C3077     C3078 1.390       .   D
C3077     H3105 1.082       .   S
C3078     H3106 1.084       .   S
C3079     C3080 1.415       .   S
C3079     C3082 1.412       .   D
C3080     C3084 1.483       .   S
C3081     C3082 1.393       .   S
C3081     H3107 1.084       .   S
C3082     H3108 1.082       .   S
C3083     C3085 1.403       .   S
C3083     C3089 1.403       .   D
C3084     C3090 1.403       .   D
C3084     C3094 1.403       .   S
C3085     C3086 1.398       .   D
C3085     H3109 1.083       .   S
C3086     C3087 1.398       .   S
C3086     H3110 1.082       .   S
C3087     C3088 1.398       .   D
C3088     C3089 1.398       .   S
C3088     H3112 1.082       .   S
C3089     H3113 1.083       .   S
C3090     C3091 1.398       .   S
C3090     H3114 1.084       .   S
C3091     C3092 1.399       .   D
C3091     H3115 1.083       .   S
C3092     C3093 1.399       .   S
C3093     C3094 1.399       .   D
C3093     H3117 1.083       .   S
C3094     H3118 1.084       .   S
C2969     C2970 1.410       .   S
C2969     C2974 1.386       .   D
C2969     H3021 1.082       .   S
C2970     C2971 1.423       .   S
C2970     C2979 1.415       .   D
C2971     C2972 1.419       .   S
C2971     C2978 1.417       .   D
C2972     C2973 1.412       .   D
C2972     C2975 1.496       .   S
C2973     C2974 1.388       .   S
C2973     H3022 1.076       .   S
C2974     H3023 1.083       .   S
C2975     C2976 1.416       .   S
C2975     C2990 1.412       .   D
C2976     C2977 1.415       .   D
C2976     C2987 1.419       .   S
C2977     C2978 1.422       .   S
C2977     C2982 1.419       .   S
C2978     C2981 1.417       .   S
C2979     C2980 1.413       .   S
C2979     C3009 1.484       .   S
C2980     C2981 1.418       .   D
C2980     C2993 1.412       .   S
C2981     C2984 1.415       .   S
C2982     C2983 1.411       .   D
C2982     C2985 1.418       .   S
C2983     C2984 1.410       .   S
C2983     C2996 1.413       .   S
C2984     C2991 1.415       .   D
C2985     C2986 1.408       .   S
C2985     C2998 1.414       .   D
C2986     C2987 1.414       .   D
C2986     C3002 1.420       .   S
C2987     C2988 1.412       .   S
C2988     C2989 1.394       .   D
C2988     C3004 1.397       .   S
C2989     C2990 1.389       .   S
C2989     H3024 1.084       .   S
C2990     H3025 1.076       .   S
C2991     C2992 1.395       .   S
C2991     C2994 1.400       .   S
C2992     C2993 1.390       .   D
C2992     H3026 1.084       .   S
C2993     H3027 1.082       .   S
C2994     C2995 1.398       .   D
C2994     H3028 1.085       .   S
C2995     C2996 1.414       .   S
C2995     C2999 1.402       .   S
C2996     C2997 1.410       .   D
C2997     C2998 1.413       .   S
C2997     C3001 1.413       .   S
C2998     C3005 1.417       .   S
C2999     C3000 1.395       .   D
C2999     H3029 1.084       .   S
C3000     C3001 1.401       .   S
C3000     H3030 1.084       .   S
C3001     C3007 1.397       .   D
C3002     C3003 1.410       .   S
C3002     C3006 1.417       .   D
C3003     C3004 1.390       .   D
C3003     H3031 1.082       .   S
C3004     H3032 1.084       .   S
C3005     C3006 1.415       .   S
C3005     C3008 1.412       .   D
C3006     C3010 1.483       .   S
C3007     C3008 1.393       .   S
C3007     H3033 1.084       .   S
C3008     H3034 1.082       .   S
C3009     C3011 1.403       .   S
C3009     C3015 1.403       .   D
C3010     C3016 1.403       .   D
C3010     C3020 1.403       .   S
C3011     C3012 1.398       .   D
C3011     H3035 1.083       .   S
C3012     C3013 1.398       .   S
C3012     H3036 1.082       .   S
C3013     C3014 1.398       .   D
C3014     C3015 1.398       .   S
C3014     H3038 1.082       .   S
C3015     H3039 1.083       .   S
C3016     C3017 1.398       .   S
C3016     H3040 1.084       .   S
C3017     C3018 1.399       .   D
C3017     H3041 1.083       .   S
C3018     C3019 1.399       .   S
C3019     C3020 1.399       .   D
C3019     H3043 1.083       .   S
C3020     H3044 1.084       .   S
C2895     C2896 1.410       .   S
C2895     C2900 1.386       .   D
C2895     H2947 1.082       .   S
C2896     C2897 1.423       .   S
C2896     C2905 1.415       .   D
C2897     C2898 1.419       .   S
C2897     C2904 1.417       .   D
C2898     C2899 1.412       .   D
C2898     C2901 1.496       .   S
C2899     C2900 1.388       .   S
C2899     H2948 1.076       .   S
C2900     H2949 1.083       .   S
C2901     C2902 1.416       .   S
C2901     C2916 1.412       .   D
C2902     C2903 1.415       .   D
C2902     C2913 1.419       .   S
C2903     C2904 1.422       .   S
C2903     C2908 1.419       .   S
C2904     C2907 1.417       .   S
C2905     C2906 1.413       .   S
C2905     C2935 1.484       .   S
C2906     C2907 1.418       .   D
C2906     C2919 1.412       .   S
C2907     C2910 1.415       .   S
C2908     C2909 1.411       .   D
C2908     C2911 1.418       .   S
C2909     C2910 1.410       .   S
C2909     C2922 1.413       .   S
C2910     C2917 1.415       .   D
C2911     C2912 1.408       .   S
C2911     C2924 1.414       .   D
C2912     C2913 1.414       .   D
C2912     C2928 1.420       .   S
C2913     C2914 1.412       .   S
C2914     C2915 1.394       .   D
C2914     C2930 1.397       .   S
C2915     C2916 1.389       .   S
C2915     H2950 1.084       .   S
C2916     H2951 1.076       .   S
C2917     C2918 1.395       .   S
C2917     C2920 1.400       .   S
C2918     C2919 1.390       .   D
C2918     H2952 1.084       .   S
C2919     H2953 1.082       .   S
C2920     C2921 1.398       .   D
C2920     H2954 1.085       .   S
C2921     C2922 1.414       .   S
C2921     C2925 1.402       .   S
C2922     C2923 1.410       .   D
C2923     C2924 1.413       .   S
C2923     C2927 1.413       .   S
C2924     C2931 1.417       .   S
C2925     C2926 1.395       .   D
C2925     H2955 1.084       .   S
C2926     C2927 1.401       .   S
C2926     H2956 1.084       .   S
C2927     C2933 1.397       .   D
C2928     C2929 1.410       .   S
C2928     C2932 1.417       .   D
C2929     C2930 1.390       .   D
C2929     H2957 1.082       .   S
C2930     H2958 1.084       .   S
C2931     C2932 1.415       .   S
C2931     C2934 1.412       .   D
C2932     C2936 1.483       .   S
C2933     C2934 1.393       .   S
C2933     H2959 1.084       .   S
C2934     H2960 1.082       .   S
C2935     C2937 1.403       .   S
C2935     C2941 1.403       .   D
C2936     C2942 1.403       .   D
C2936     C2946 1.403       .   S
C2937     C2938 1.398       .   D
C2937     H2961 1.083       .   S
C2938     C2939 1.398       .   S
C2938     H2962 1.082       .   S
C2939     C2940 1.398       .   D
C2940     C2941 1.398       .   S
C2940     H2964 1.082       .   S
C2941     H2965 1.083       .   S
C2942     C2943 1.398       .   S
C2942     H2966 1.084       .   S
C2943     C2944 1.399       .   D
C2943     H2967 1.083       .   S
C2944     C2945 1.399       .   S
C2945     C2946 1.399       .   D
C2945     H2969 1.083       .   S
C2946     H2970 1.084       .   S
C2821     C2822 1.410       .   S
C2821     C2826 1.386       .   D
C2821     H2873 1.082       .   S
C2822     C2823 1.423       .   S
C2822     C2831 1.415       .   D
C2823     C2824 1.419       .   S
C2823     C2830 1.417       .   D
C2824     C2825 1.412       .   D
C2824     C2827 1.496       .   S
C2825     C2826 1.388       .   S
C2825     H2874 1.076       .   S
C2826     H2875 1.083       .   S
C2827     C2828 1.416       .   S
C2827     C2842 1.412       .   D
C2828     C2829 1.415       .   D
C2828     C2839 1.419       .   S
C2829     C2830 1.422       .   S
C2829     C2834 1.419       .   S
C2830     C2833 1.417       .   S
C2831     C2832 1.413       .   S
C2831     C2861 1.484       .   S
C2832     C2833 1.418       .   D
C2832     C2845 1.412       .   S
C2833     C2836 1.415       .   S
C2834     C2835 1.411       .   D
C2834     C2837 1.418       .   S
C2835     C2836 1.410       .   S
C2835     C2848 1.413       .   S
C2836     C2843 1.415       .   D
C2837     C2838 1.408       .   S
C2837     C2850 1.414       .   D
C2838     C2839 1.414       .   D
C2838     C2854 1.420       .   S
C2839     C2840 1.412       .   S
C2840     C2841 1.394       .   D
C2840     C2856 1.397       .   S
C2841     C2842 1.389       .   S
C2841     H2876 1.084       .   S
C2842     H2877 1.076       .   S
C2843     C2844 1.395       .   S
C2843     C2846 1.400       .   S
C2844     C2845 1.390       .   D
C2844     H2878 1.084       .   S
C2845     H2879 1.082       .   S
C2846     C2847 1.398       .   D
C2846     H2880 1.085       .   S
C2847     C2848 1.414       .   S
C2847     C2851 1.402       .   S
C2848     C2849 1.410       .   D
C2849     C2850 1.413       .   S
C2849     C2853 1.413       .   S
C2850     C2857 1.417       .   S
C2851     C2852 1.395       .   D
C2851     H2881 1.084       .   S
C2852     C2853 1.401       .   S
C2852     H2882 1.084       .   S
C2853     C2859 1.397       .   D
C2854     C2855 1.410       .   S
C2854     C2858 1.417       .   D
C2855     C2856 1.390       .   D
C2855     H2883 1.082       .   S
C2856     H2884 1.084       .   S
C2857     C2858 1.415       .   S
C2857     C2860 1.412       .   D
C2858     C2862 1.483       .   S
C2859     C2860 1.393       .   S
C2859     H2885 1.084       .   S
C2860     H2886 1.082       .   S
C2861     C2863 1.403       .   S
C2861     C2867 1.403       .   D
C2862     C2868 1.403       .   D
C2862     C2872 1.403       .   S
C2863     C2864 1.398       .   D
C2863     H2887 1.083       .   S
C2864     C2865 1.398       .   S
C2864     H2888 1.082       .   S
C2865     C2866 1.398       .   D
C2866     C2867 1.398       .   S
C2866     H2890 1.082       .   S
C2867     H2891 1.083       .   S
C2868     C2869 1.398       .   S
C2868     H2892 1.084       .   S
C2869     C2870 1.399       .   D
C2869     H2893 1.083       .   S
C2870     C2871 1.399       .   S
C2871     C2872 1.399       .   D
C2871     H2895 1.083       .   S
C2872     H2896 1.084       .   S
C2747     C2748 1.410       .   S
C2747     C2752 1.386       .   D
C2747     H2799 1.082       .   S
C2748     C2749 1.423       .   S
C2748     C2757 1.415       .   D
C2749     C2750 1.419       .   S
C2749     C2756 1.417       .   D
C2750     C2751 1.412       .   D
C2750     C2753 1.496       .   S
C2751     C2752 1.388       .   S
C2751     H2800 1.076       .   S
C2752     H2801 1.083       .   S
C2753     C2754 1.416       .   S
C2753     C2768 1.412       .   D
C2754     C2755 1.415       .   D
C2754     C2765 1.419       .   S
C2755     C2756 1.422       .   S
C2755     C2760 1.419       .   S
C2756     C2759 1.417       .   S
C2757     C2758 1.413       .   S
C2757     C2787 1.484       .   S
C2758     C2759 1.418       .   D
C2758     C2771 1.412       .   S
C2759     C2762 1.415       .   S
C2760     C2761 1.411       .   D
C2760     C2763 1.418       .   S
C2761     C2762 1.410       .   S
C2761     C2774 1.413       .   S
C2762     C2769 1.415       .   D
C2763     C2764 1.408       .   S
C2763     C2776 1.414       .   D
C2764     C2765 1.414       .   D
C2764     C2780 1.420       .   S
C2765     C2766 1.412       .   S
C2766     C2767 1.394       .   D
C2766     C2782 1.397       .   S
C2767     C2768 1.389       .   S
C2767     H2802 1.084       .   S
C2768     H2803 1.076       .   S
C2769     C2770 1.395       .   S
C2769     C2772 1.400       .   S
C2770     C2771 1.390       .   D
C2770     H2804 1.084       .   S
C2771     H2805 1.082       .   S
C2772     C2773 1.398       .   D
C2772     H2806 1.085       .   S
C2773     C2774 1.414       .   S
C2773     C2777 1.402       .   S
C2774     C2775 1.410       .   D
C2775     C2776 1.413       .   S
C2775     C2779 1.413       .   S
C2776     C2783 1.417       .   S
C2777     C2778 1.395       .   D
C2777     H2807 1.084       .   S
C2778     C2779 1.401       .   S
C2778     H2808 1.084       .   S
C2779     C2785 1.397       .   D
C2780     C2781 1.410       .   S
C2780     C2784 1.417       .   D
C2781     C2782 1.390       .   D
C2781     H2809 1.082       .   S
C2782     H2810 1.084       .   S
C2783     C2784 1.415       .   S
C2783     C2786 1.412       .   D
C2784     C2788 1.483       .   S
C2785     C2786 1.393       .   S
C2785     H2811 1.084       .   S
C2786     H2812 1.082       .   S
C2787     C2789 1.403       .   S
C2787     C2793 1.403       .   D
C2788     C2794 1.403       .   D
C2788     C2798 1.403       .   S
C2789     C2790 1.398       .   D
C2789     H2813 1.083       .   S
C2790     C2791 1.398       .   S
C2790     H2814 1.082       .   S
C2791     C2792 1.398       .   D
C2792     C2793 1.398       .   S
C2792     H2816 1.082       .   S
C2793     H2817 1.083       .   S
C2794     C2795 1.398       .   S
C2794     H2818 1.084       .   S
C2795     C2796 1.399       .   D
C2795     H2819 1.083       .   S
C2796     C2797 1.399       .   S
C2797     C2798 1.399       .   D
C2797     H2821 1.083       .   S
C2798     H2822 1.084       .   S
C2673     C2674 1.410       .   S
C2673     C2678 1.386       .   D
C2673     H2725 1.082       .   S
C2674     C2675 1.423       .   S
C2674     C2683 1.415       .   D
C2675     C2676 1.419       .   S
C2675     C2682 1.417       .   D
C2676     C2677 1.412       .   D
C2676     C2679 1.496       .   S
C2677     C2678 1.388       .   S
C2677     H2726 1.076       .   S
C2678     H2727 1.083       .   S
C2679     C2680 1.416       .   S
C2679     C2694 1.412       .   D
C2680     C2681 1.415       .   D
C2680     C2691 1.419       .   S
C2681     C2682 1.422       .   S
C2681     C2686 1.419       .   S
C2682     C2685 1.417       .   S
C2683     C2684 1.413       .   S
C2683     C2713 1.484       .   S
C2684     C2685 1.418       .   D
C2684     C2697 1.412       .   S
C2685     C2688 1.415       .   S
C2686     C2687 1.411       .   D
C2686     C2689 1.418       .   S
C2687     C2688 1.410       .   S
C2687     C2700 1.413       .   S
C2688     C2695 1.415       .   D
C2689     C2690 1.408       .   S
C2689     C2702 1.414       .   D
C2690     C2691 1.414       .   D
C2690     C2706 1.420       .   S
C2691     C2692 1.412       .   S
C2692     C2693 1.394       .   D
C2692     C2708 1.397       .   S
C2693     C2694 1.389       .   S
C2693     H2728 1.084       .   S
C2694     H2729 1.076       .   S
C2695     C2696 1.395       .   S
C2695     C2698 1.400       .   S
C2696     C2697 1.390       .   D
C2696     H2730 1.084       .   S
C2697     H2731 1.082       .   S
C2698     C2699 1.398       .   D
C2698     H2732 1.085       .   S
C2699     C2700 1.414       .   S
C2699     C2703 1.402       .   S
C2700     C2701 1.410       .   D
C2701     C2702 1.413       .   S
C2701     C2705 1.413       .   S
C2702     C2709 1.417       .   S
C2703     C2704 1.395       .   D
C2703     H2733 1.084       .   S
C2704     C2705 1.401       .   S
C2704     H2734 1.084       .   S
C2705     C2711 1.397       .   D
C2706     C2707 1.410       .   S
C2706     C2710 1.417       .   D
C2707     C2708 1.390       .   D
C2707     H2735 1.082       .   S
C2708     H2736 1.084       .   S
C2709     C2710 1.415       .   S
C2709     C2712 1.412       .   D
C2710     C2714 1.483       .   S
C2711     C2712 1.393       .   S
C2711     H2737 1.084       .   S
C2712     H2738 1.082       .   S
C2713     C2715 1.403       .   S
C2713     C2719 1.403       .   D
C2714     C2720 1.403       .   D
C2714     C2724 1.403       .   S
C2715     C2716 1.398       .   D
C2715     H2739 1.083       .   S
C2716     C2717 1.398       .   S
C2716     H2740 1.082       .   S
C2717     C2718 1.398       .   D
C2718     C2719 1.398       .   S
C2718     H2742 1.082       .   S
C2719     H2743 1.083       .   S
C2720     C2721 1.398       .   S
C2720     H2744 1.084       .   S
C2721     C2722 1.399       .   D
C2721     H2745 1.083       .   S
C2722     C2723 1.399       .   S
C2723     C2724 1.399       .   D
C2723     H2747 1.083       .   S
C2724     H2748 1.084       .   S
C2599     C2600 1.410       .   S
C2599     C2604 1.386       .   D
C2599     H2651 1.082       .   S
C2600     C2601 1.423       .   S
C2600     C2609 1.415       .   D
C2601     C2602 1.419       .   S
C2601     C2608 1.417       .   D
C2602     C2603 1.412       .   D
C2602     C2605 1.496       .   S
C2603     C2604 1.388       .   S
C2603     H2652 1.076       .   S
C2604     H2653 1.083       .   S
C2605     C2606 1.416       .   S
C2605     C2620 1.412       .   D
C2606     C2607 1.415       .   D
C2606     C2617 1.419       .   S
C2607     C2608 1.422       .   S
C2607     C2612 1.419       .   S
C2608     C2611 1.417       .   S
C2609     C2610 1.413       .   S
C2609     C2639 1.484       .   S
C2610     C2611 1.418       .   D
C2610     C2623 1.412       .   S
C2611     C2614 1.415       .   S
C2612     C2613 1.411       .   D
C2612     C2615 1.418       .   S
C2613     C2614 1.410       .   S
C2613     C2626 1.413       .   S
C2614     C2621 1.415       .   D
C2615     C2616 1.408       .   S
C2615     C2628 1.414       .   D
C2616     C2617 1.414       .   D
C2616     C2632 1.420       .   S
C2617     C2618 1.412       .   S
C2618     C2619 1.394       .   D
C2618     C2634 1.397       .   S
C2619     C2620 1.389       .   S
C2619     H2654 1.084       .   S
C2620     H2655 1.076       .   S
C2621     C2622 1.395       .   S
C2621     C2624 1.400       .   S
C2622     C2623 1.390       .   D
C2622     H2656 1.084       .   S
C2623     H2657 1.082       .   S
C2624     C2625 1.398       .   D
C2624     H2658 1.085       .   S
C2625     C2626 1.414       .   S
C2625     C2629 1.402       .   S
C2626     C2627 1.410       .   D
C2627     C2628 1.413       .   S
C2627     C2631 1.413       .   S
C2628     C2635 1.417       .   S
C2629     C2630 1.395       .   D
C2629     H2659 1.084       .   S
C2630     C2631 1.401       .   S
C2630     H2660 1.084       .   S
C2631     C2637 1.397       .   D
C2632     C2633 1.410       .   S
C2632     C2636 1.417       .   D
C2633     C2634 1.390       .   D
C2633     H2661 1.082       .   S
C2634     H2662 1.084       .   S
C2635     C2636 1.415       .   S
C2635     C2638 1.412       .   D
C2636     C2640 1.483       .   S
C2637     C2638 1.393       .   S
C2637     H2663 1.084       .   S
C2638     H2664 1.082       .   S
C2639     C2641 1.403       .   S
C2639     C2645 1.403       .   D
C2640     C2646 1.403       .   D
C2640     C2650 1.403       .   S
C2641     C2642 1.398       .   D
C2641     H2665 1.083       .   S
C2642     C2643 1.398       .   S
C2642     H2666 1.082       .   S
C2643     C2644 1.398       .   D
C2644     C2645 1.398       .   S
C2644     H2668 1.082       .   S
C2645     H2669 1.083       .   S
C2646     C2647 1.398       .   S
C2646     H2670 1.084       .   S
C2647     C2648 1.399       .   D
C2647     H2671 1.083       .   S
C2648     C2649 1.399       .   S
C2649     C2650 1.399       .   D
C2649     H2673 1.083       .   S
C2650     H2674 1.084       .   S
C2525     C2526 1.410       .   S
C2525     C2530 1.386       .   D
C2525     H2577 1.082       .   S
C2526     C2527 1.423       .   S
C2526     C2535 1.415       .   D
C2527     C2528 1.419       .   S
C2527     C2534 1.417       .   D
C2528     C2529 1.412       .   D
C2528     C2531 1.496       .   S
C2529     C2530 1.388       .   S
C2529     H2578 1.076       .   S
C2530     H2579 1.083       .   S
C2531     C2532 1.416       .   S
C2531     C2546 1.412       .   D
C2532     C2533 1.415       .   D
C2532     C2543 1.419       .   S
C2533     C2534 1.422       .   S
C2533     C2538 1.419       .   S
C2534     C2537 1.417       .   S
C2535     C2536 1.413       .   S
C2535     C2565 1.484       .   S
C2536     C2537 1.418       .   D
C2536     C2549 1.412       .   S
C2537     C2540 1.415       .   S
C2538     C2539 1.411       .   D
C2538     C2541 1.418       .   S
C2539     C2540 1.410       .   S
C2539     C2552 1.413       .   S
C2540     C2547 1.415       .   D
C2541     C2542 1.408       .   S
C2541     C2554 1.414       .   D
C2542     C2543 1.414       .   D
C2542     C2558 1.420       .   S
C2543     C2544 1.412       .   S
C2544     C2545 1.394       .   D
C2544     C2560 1.397       .   S
C2545     C2546 1.389       .   S
C2545     H2580 1.084       .   S
C2546     H2581 1.076       .   S
C2547     C2548 1.395       .   S
C2547     C2550 1.400       .   S
C2548     C2549 1.390       .   D
C2548     H2582 1.084       .   S
C2549     H2583 1.082       .   S
C2550     C2551 1.398       .   D
C2550     H2584 1.085       .   S
C2551     C2552 1.414       .   S
C2551     C2555 1.402       .   S
C2552     C2553 1.410       .   D
C2553     C2554 1.413       .   S
C2553     C2557 1.413       .   S
C2554     C2561 1.417       .   S
C2555     C2556 1.395       .   D
C2555     H2585 1.084       .   S
C2556     C2557 1.401       .   S
C2556     H2586 1.084       .   S
C2557     C2563 1.397       .   D
C2558     C2559 1.410       .   S
C2558     C2562 1.417       .   D
C2559     C2560 1.390       .   D
C2559     H2587 1.082       .   S
C2560     H2588 1.084       .   S
C2561     C2562 1.415       .   S
C2561     C2564 1.412       .   D
C2562     C2566 1.483       .   S
C2563     C2564 1.393       .   S
C2563     H2589 1.084       .   S
C2564     H2590 1.082       .   S
C2565     C2567 1.403       .   S
C2565     C2571 1.403       .   D
C2566     C2572 1.403       .   D
C2566     C2576 1.403       .   S
C2567     C2568 1.398       .   D
C2567     H2591 1.083       .   S
C2568     C2569 1.398       .   S
C2568     H2592 1.082       .   S
C2569     C2570 1.398       .   D
C2570     C2571 1.398       .   S
C2570     H2594 1.082       .   S
C2571     H2595 1.083       .   S
C2572     C2573 1.398       .   S
C2572     H2596 1.084       .   S
C2573     C2574 1.399       .   D
C2573     H2597 1.083       .   S
C2574     C2575 1.399       .   S
C2575     C2576 1.399       .   D
C2575     H2599 1.083       .   S
C2576     H2600 1.084       .   S
C2451     C2452 1.410       .   S
C2451     C2456 1.386       .   D
C2451     H2503 1.082       .   S
C2452     C2453 1.423       .   S
C2452     C2461 1.415       .   D
C2453     C2454 1.419       .   S
C2453     C2460 1.417       .   D
C2454     C2455 1.412       .   D
C2454     C2457 1.496       .   S
C2455     C2456 1.388       .   S
C2455     H2504 1.076       .   S
C2456     H2505 1.083       .   S
C2457     C2458 1.416       .   S
C2457     C2472 1.412       .   D
C2458     C2459 1.415       .   D
C2458     C2469 1.419       .   S
C2459     C2460 1.422       .   S
C2459     C2464 1.419       .   S
C2460     C2463 1.417       .   S
C2461     C2462 1.413       .   S
C2461     C2491 1.484       .   S
C2462     C2463 1.418       .   D
C2462     C2475 1.412       .   S
C2463     C2466 1.415       .   S
C2464     C2465 1.411       .   D
C2464     C2467 1.418       .   S
C2465     C2466 1.410       .   S
C2465     C2478 1.413       .   S
C2466     C2473 1.415       .   D
C2467     C2468 1.408       .   S
C2467     C2480 1.414       .   D
C2468     C2469 1.414       .   D
C2468     C2484 1.420       .   S
C2469     C2470 1.412       .   S
C2470     C2471 1.394       .   D
C2470     C2486 1.397       .   S
C2471     C2472 1.389       .   S
C2471     H2506 1.084       .   S
C2472     H2507 1.076       .   S
C2473     C2474 1.395       .   S
C2473     C2476 1.400       .   S
C2474     C2475 1.390       .   D
C2474     H2508 1.084       .   S
C2475     H2509 1.082       .   S
C2476     C2477 1.398       .   D
C2476     H2510 1.085       .   S
C2477     C2478 1.414       .   S
C2477     C2481 1.402       .   S
C2478     C2479 1.410       .   D
C2479     C2480 1.413       .   S
C2479     C2483 1.413       .   S
C2480     C2487 1.417       .   S
C2481     C2482 1.395       .   D
C2481     H2511 1.084       .   S
C2482     C2483 1.401       .   S
C2482     H2512 1.084       .   S
C2483     C2489 1.397       .   D
C2484     C2485 1.410       .   S
C2484     C2488 1.417       .   D
C2485     C2486 1.390       .   D
C2485     H2513 1.082       .   S
C2486     H2514 1.084       .   S
C2487     C2488 1.415       .   S
C2487     C2490 1.412       .   D
C2488     C2492 1.483       .   S
C2489     C2490 1.393       .   S
C2489     H2515 1.084       .   S
C2490     H2516 1.082       .   S
C2491     C2493 1.403       .   S
C2491     C2497 1.403       .   D
C2492     C2498 1.403       .   D
C2492     C2502 1.403       .   S
C2493     C2494 1.398       .   D
C2493     H2517 1.083       .   S
C2494     C2495 1.398       .   S
C2494     H2518 1.082       .   S
C2495     C2496 1.398       .   D
C2496     C2497 1.398       .   S
C2496     H2520 1.082       .   S
C2497     H2521 1.083       .   S
C2498     C2499 1.398       .   S
C2498     H2522 1.084       .   S
C2499     C2500 1.399       .   D
C2499     H2523 1.083       .   S
C2500     C2501 1.399       .   S
C2501     C2502 1.399       .   D
C2501     H2525 1.083       .   S
C2502     H2526 1.084       .   S
C2377     C2378 1.410       .   S
C2377     C2382 1.386       .   D
C2377     H2429 1.082       .   S
C2378     C2379 1.423       .   S
C2378     C2387 1.415       .   D
C2379     C2380 1.419       .   S
C2379     C2386 1.417       .   D
C2380     C2381 1.412       .   D
C2380     C2383 1.496       .   S
C2381     C2382 1.388       .   S
C2381     H2430 1.076       .   S
C2382     H2431 1.083       .   S
C2383     C2384 1.416       .   S
C2383     C2398 1.412       .   D
C2384     C2385 1.415       .   D
C2384     C2395 1.419       .   S
C2385     C2386 1.422       .   S
C2385     C2390 1.419       .   S
C2386     C2389 1.417       .   S
C2387     C2388 1.413       .   S
C2387     C2417 1.484       .   S
C2388     C2389 1.418       .   D
C2388     C2401 1.412       .   S
C2389     C2392 1.415       .   S
C2390     C2391 1.411       .   D
C2390     C2393 1.418       .   S
C2391     C2392 1.410       .   S
C2391     C2404 1.413       .   S
C2392     C2399 1.415       .   D
C2393     C2394 1.408       .   S
C2393     C2406 1.414       .   D
C2394     C2395 1.414       .   D
C2394     C2410 1.420       .   S
C2395     C2396 1.412       .   S
C2396     C2397 1.394       .   D
C2396     C2412 1.397       .   S
C2397     C2398 1.389       .   S
C2397     H2432 1.084       .   S
C2398     H2433 1.076       .   S
C2399     C2400 1.395       .   S
C2399     C2402 1.400       .   S
C2400     C2401 1.390       .   D
C2400     H2434 1.084       .   S
C2401     H2435 1.082       .   S
C2402     C2403 1.398       .   D
C2402     H2436 1.085       .   S
C2403     C2404 1.414       .   S
C2403     C2407 1.402       .   S
C2404     C2405 1.410       .   D
C2405     C2406 1.413       .   S
C2405     C2409 1.413       .   S
C2406     C2413 1.417       .   S
C2407     C2408 1.395       .   D
C2407     H2437 1.084       .   S
C2408     C2409 1.401       .   S
C2408     H2438 1.084       .   S
C2409     C2415 1.397       .   D
C2410     C2411 1.410       .   S
C2410     C2414 1.417       .   D
C2411     C2412 1.390       .   D
C2411     H2439 1.082       .   S
C2412     H2440 1.084       .   S
C2413     C2414 1.415       .   S
C2413     C2416 1.412       .   D
C2414     C2418 1.483       .   S
C2415     C2416 1.393       .   S
C2415     H2441 1.084       .   S
C2416     H2442 1.082       .   S
C2417     C2419 1.403       .   S
C2417     C2423 1.403       .   D
C2418     C2424 1.403       .   D
C2418     C2428 1.403       .   S
C2419     C2420 1.398       .   D
C2419     H2443 1.083       .   S
C2420     C2421 1.398       .   S
C2420     H2444 1.082       .   S
C2421     C2422 1.398       .   D
C2422     C2423 1.398       .   S
C2422     H2446 1.082       .   S
C2423     H2447 1.083       .   S
C2424     C2425 1.398       .   S
C2424     H2448 1.084       .   S
C2425     C2426 1.399       .   D
C2425     H2449 1.083       .   S
C2426     C2427 1.399       .   S
C2427     C2428 1.399       .   D
C2427     H2451 1.083       .   S
C2428     H2452 1.084       .   S
C2303     C2304 1.410       .   S
C2303     C2308 1.386       .   D
C2303     H2355 1.082       .   S
C2304     C2305 1.423       .   S
C2304     C2313 1.415       .   D
C2305     C2306 1.419       .   S
C2305     C2312 1.417       .   D
C2306     C2307 1.412       .   D
C2306     C2309 1.496       .   S
C2307     C2308 1.388       .   S
C2307     H2356 1.076       .   S
C2308     H2357 1.083       .   S
C2309     C2310 1.416       .   S
C2309     C2324 1.412       .   D
C2310     C2311 1.415       .   D
C2310     C2321 1.419       .   S
C2311     C2312 1.422       .   S
C2311     C2316 1.419       .   S
C2312     C2315 1.417       .   S
C2313     C2314 1.413       .   S
C2313     C2343 1.484       .   S
C2314     C2315 1.418       .   D
C2314     C2327 1.412       .   S
C2315     C2318 1.415       .   S
C2316     C2317 1.411       .   D
C2316     C2319 1.418       .   S
C2317     C2318 1.410       .   S
C2317     C2330 1.413       .   S
C2318     C2325 1.415       .   D
C2319     C2320 1.408       .   S
C2319     C2332 1.414       .   D
C2320     C2321 1.414       .   D
C2320     C2336 1.420       .   S
C2321     C2322 1.412       .   S
C2322     C2323 1.394       .   D
C2322     C2338 1.397       .   S
C2323     C2324 1.389       .   S
C2323     H2358 1.084       .   S
C2324     H2359 1.076       .   S
C2325     C2326 1.395       .   S
C2325     C2328 1.400       .   S
C2326     C2327 1.390       .   D
C2326     H2360 1.084       .   S
C2327     H2361 1.082       .   S
C2328     C2329 1.398       .   D
C2328     H2362 1.085       .   S
C2329     C2330 1.414       .   S
C2329     C2333 1.402       .   S
C2330     C2331 1.410       .   D
C2331     C2332 1.413       .   S
C2331     C2335 1.413       .   S
C2332     C2339 1.417       .   S
C2333     C2334 1.395       .   D
C2333     H2363 1.084       .   S
C2334     C2335 1.401       .   S
C2334     H2364 1.084       .   S
C2335     C2341 1.397       .   D
C2336     C2337 1.410       .   S
C2336     C2340 1.417       .   D
C2337     C2338 1.390       .   D
C2337     H2365 1.082       .   S
C2338     H2366 1.084       .   S
C2339     C2340 1.415       .   S
C2339     C2342 1.412       .   D
C2340     C2344 1.483       .   S
C2341     C2342 1.393       .   S
C2341     H2367 1.084       .   S
C2342     H2368 1.082       .   S
C2343     C2345 1.403       .   S
C2343     C2349 1.403       .   D
C2344     C2350 1.403       .   D
C2344     C2354 1.403       .   S
C2345     C2346 1.398       .   D
C2345     H2369 1.083       .   S
C2346     C2347 1.398       .   S
C2346     H2370 1.082       .   S
C2347     C2348 1.398       .   D
C2348     C2349 1.398       .   S
C2348     H2372 1.082       .   S
C2349     H2373 1.083       .   S
C2350     C2351 1.398       .   S
C2350     H2374 1.084       .   S
C2351     C2352 1.399       .   D
C2351     H2375 1.083       .   S
C2352     C2353 1.399       .   S
C2353     C2354 1.399       .   D
C2353     H2377 1.083       .   S
C2354     H2378 1.084       .   S
C2229     C2230 1.410       .   S
C2229     C2234 1.386       .   D
C2229     H2281 1.082       .   S
C2230     C2231 1.423       .   S
C2230     C2239 1.415       .   D
C2231     C2232 1.419       .   S
C2231     C2238 1.417       .   D
C2232     C2233 1.412       .   D
C2232     C2235 1.496       .   S
C2233     C2234 1.388       .   S
C2233     H2282 1.076       .   S
C2234     H2283 1.083       .   S
C2235     C2236 1.416       .   S
C2235     C2250 1.412       .   D
C2236     C2237 1.415       .   D
C2236     C2247 1.419       .   S
C2237     C2238 1.422       .   S
C2237     C2242 1.419       .   S
C2238     C2241 1.417       .   S
C2239     C2240 1.413       .   S
C2239     C2269 1.484       .   S
C2240     C2241 1.418       .   D
C2240     C2253 1.412       .   S
C2241     C2244 1.415       .   S
C2242     C2243 1.411       .   D
C2242     C2245 1.418       .   S
C2243     C2244 1.410       .   S
C2243     C2256 1.413       .   S
C2244     C2251 1.415       .   D
C2245     C2246 1.408       .   S
C2245     C2258 1.414       .   D
C2246     C2247 1.414       .   D
C2246     C2262 1.420       .   S
C2247     C2248 1.412       .   S
C2248     C2249 1.394       .   D
C2248     C2264 1.397       .   S
C2249     C2250 1.389       .   S
C2249     H2284 1.084       .   S
C2250     H2285 1.076       .   S
C2251     C2252 1.395       .   S
C2251     C2254 1.400       .   S
C2252     C2253 1.390       .   D
C2252     H2286 1.084       .   S
C2253     H2287 1.082       .   S
C2254     C2255 1.398       .   D
C2254     H2288 1.085       .   S
C2255     C2256 1.414       .   S
C2255     C2259 1.402       .   S
C2256     C2257 1.410       .   D
C2257     C2258 1.413       .   S
C2257     C2261 1.413       .   S
C2258     C2265 1.417       .   S
C2259     C2260 1.395       .   D
C2259     H2289 1.084       .   S
C2260     C2261 1.401       .   S
C2260     H2290 1.084       .   S
C2261     C2267 1.397       .   D
C2262     C2263 1.410       .   S
C2262     C2266 1.417       .   D
C2263     C2264 1.390       .   D
C2263     H2291 1.082       .   S
C2264     H2292 1.084       .   S
C2265     C2266 1.415       .   S
C2265     C2268 1.412       .   D
C2266     C2270 1.483       .   S
C2267     C2268 1.393       .   S
C2267     H2293 1.084       .   S
C2268     H2294 1.082       .   S
C2269     C2271 1.403       .   S
C2269     C2275 1.403       .   D
C2270     C2276 1.403       .   D
C2270     C2280 1.403       .   S
C2271     C2272 1.398       .   D
C2271     H2295 1.083       .   S
C2272     C2273 1.398       .   S
C2272     H2296 1.082       .   S
C2273     C2274 1.398       .   D
C2274     C2275 1.398       .   S
C2274     H2298 1.082       .   S
C2275     H2299 1.083       .   S
C2276     C2277 1.398       .   S
C2276     H2300 1.084       .   S
C2277     C2278 1.399       .   D
C2277     H2301 1.083       .   S
C2278     C2279 1.399       .   S
C2279     C2280 1.399       .   D
C2279     H2303 1.083       .   S
C2280     H2304 1.084       .   S
C2155     C2156 1.410       .   S
C2155     C2160 1.386       .   D
C2155     H2207 1.082       .   S
C2156     C2157 1.423       .   S
C2156     C2165 1.415       .   D
C2157     C2158 1.419       .   S
C2157     C2164 1.417       .   D
C2158     C2159 1.412       .   D
C2158     C2161 1.496       .   S
C2159     C2160 1.388       .   S
C2159     H2208 1.076       .   S
C2160     H2209 1.083       .   S
C2161     C2162 1.416       .   S
C2161     C2176 1.412       .   D
C2162     C2163 1.415       .   D
C2162     C2173 1.419       .   S
C2163     C2164 1.422       .   S
C2163     C2168 1.419       .   S
C2164     C2167 1.417       .   S
C2165     C2166 1.413       .   S
C2165     C2195 1.484       .   S
C2166     C2167 1.418       .   D
C2166     C2179 1.412       .   S
C2167     C2170 1.415       .   S
C2168     C2169 1.411       .   D
C2168     C2171 1.418       .   S
C2169     C2170 1.410       .   S
C2169     C2182 1.413       .   S
C2170     C2177 1.415       .   D
C2171     C2172 1.408       .   S
C2171     C2184 1.414       .   D
C2172     C2173 1.414       .   D
C2172     C2188 1.420       .   S
C2173     C2174 1.412       .   S
C2174     C2175 1.394       .   D
C2174     C2190 1.397       .   S
C2175     C2176 1.389       .   S
C2175     H2210 1.084       .   S
C2176     H2211 1.076       .   S
C2177     C2178 1.395       .   S
C2177     C2180 1.400       .   S
C2178     C2179 1.390       .   D
C2178     H2212 1.084       .   S
C2179     H2213 1.082       .   S
C2180     C2181 1.398       .   D
C2180     H2214 1.085       .   S
C2181     C2182 1.414       .   S
C2181     C2185 1.402       .   S
C2182     C2183 1.410       .   D
C2183     C2184 1.413       .   S
C2183     C2187 1.413       .   S
C2184     C2191 1.417       .   S
C2185     C2186 1.395       .   D
C2185     H2215 1.084       .   S
C2186     C2187 1.401       .   S
C2186     H2216 1.084       .   S
C2187     C2193 1.397       .   D
C2188     C2189 1.410       .   S
C2188     C2192 1.417       .   D
C2189     C2190 1.390       .   D
C2189     H2217 1.082       .   S
C2190     H2218 1.084       .   S
C2191     C2192 1.415       .   S
C2191     C2194 1.412       .   D
C2192     C2196 1.483       .   S
C2193     C2194 1.393       .   S
C2193     H2219 1.084       .   S
C2194     H2220 1.082       .   S
C2195     C2197 1.403       .   S
C2195     C2201 1.403       .   D
C2196     C2202 1.403       .   D
C2196     C2206 1.403       .   S
C2197     C2198 1.398       .   D
C2197     H2221 1.083       .   S
C2198     C2199 1.398       .   S
C2198     H2222 1.082       .   S
C2199     C2200 1.398       .   D
C2200     C2201 1.398       .   S
C2200     H2224 1.082       .   S
C2201     H2225 1.083       .   S
C2202     C2203 1.398       .   S
C2202     H2226 1.084       .   S
C2203     C2204 1.399       .   D
C2203     H2227 1.083       .   S
C2204     C2205 1.399       .   S
C2205     C2206 1.399       .   D
C2205     H2229 1.083       .   S
C2206     H2230 1.084       .   S
C2081     C2082 1.410       .   S
C2081     C2086 1.386       .   D
C2081     H2133 1.082       .   S
C2082     C2083 1.423       .   S
C2082     C2091 1.415       .   D
C2083     C2084 1.419       .   S
C2083     C2090 1.417       .   D
C2084     C2085 1.412       .   D
C2084     C2087 1.496       .   S
C2085     C2086 1.388       .   S
C2085     H2134 1.076       .   S
C2086     H2135 1.083       .   S
C2087     C2088 1.416       .   S
C2087     C2102 1.412       .   D
C2088     C2089 1.415       .   D
C2088     C2099 1.419       .   S
C2089     C2090 1.422       .   S
C2089     C2094 1.419       .   S
C2090     C2093 1.417       .   S
C2091     C2092 1.413       .   S
C2091     C2121 1.484       .   S
C2092     C2093 1.418       .   D
C2092     C2105 1.412       .   S
C2093     C2096 1.415       .   S
C2094     C2095 1.411       .   D
C2094     C2097 1.418       .   S
C2095     C2096 1.410       .   S
C2095     C2108 1.413       .   S
C2096     C2103 1.415       .   D
C2097     C2098 1.408       .   S
C2097     C2110 1.414       .   D
C2098     C2099 1.414       .   D
C2098     C2114 1.420       .   S
C2099     C2100 1.412       .   S
C2100     C2101 1.394       .   D
C2100     C2116 1.397       .   S
C2101     C2102 1.389       .   S
C2101     H2136 1.084       .   S
C2102     H2137 1.076       .   S
C2103     C2104 1.395       .   S
C2103     C2106 1.400       .   S
C2104     C2105 1.390       .   D
C2104     H2138 1.084       .   S
C2105     H2139 1.082       .   S
C2106     C2107 1.398       .   D
C2106     H2140 1.085       .   S
C2107     C2108 1.414       .   S
C2107     C2111 1.402       .   S
C2108     C2109 1.410       .   D
C2109     C2110 1.413       .   S
C2109     C2113 1.413       .   S
C2110     C2117 1.417       .   S
C2111     C2112 1.395       .   D
C2111     H2141 1.084       .   S
C2112     C2113 1.401       .   S
C2112     H2142 1.084       .   S
C2113     C2119 1.397       .   D
C2114     C2115 1.410       .   S
C2114     C2118 1.417       .   D
C2115     C2116 1.390       .   D
C2115     H2143 1.082       .   S
C2116     H2144 1.084       .   S
C2117     C2118 1.415       .   S
C2117     C2120 1.412       .   D
C2118     C2122 1.483       .   S
C2119     C2120 1.393       .   S
C2119     H2145 1.084       .   S
C2120     H2146 1.082       .   S
C2121     C2123 1.403       .   S
C2121     C2127 1.403       .   D
C2122     C2128 1.403       .   D
C2122     C2132 1.403       .   S
C2123     C2124 1.398       .   D
C2123     H2147 1.083       .   S
C2124     C2125 1.398       .   S
C2124     H2148 1.082       .   S
C2125     C2126 1.398       .   D
C2126     C2127 1.398       .   S
C2126     H2150 1.082       .   S
C2127     H2151 1.083       .   S
C2128     C2129 1.398       .   S
C2128     H2152 1.084       .   S
C2129     C2130 1.399       .   D
C2129     H2153 1.083       .   S
C2130     C2131 1.399       .   S
C2131     C2132 1.399       .   D
C2131     H2155 1.083       .   S
C2132     H2156 1.084       .   S
C2007     C2008 1.410       .   S
C2007     C2012 1.386       .   D
C2007     H2059 1.082       .   S
C2008     C2009 1.423       .   S
C2008     C2017 1.415       .   D
C2009     C2010 1.419       .   S
C2009     C2016 1.417       .   D
C2010     C2011 1.412       .   D
C2010     C2013 1.496       .   S
C2011     C2012 1.388       .   S
C2011     H2060 1.076       .   S
C2012     H2061 1.083       .   S
C2013     C2014 1.416       .   S
C2013     C2028 1.412       .   D
C2014     C2015 1.415       .   D
C2014     C2025 1.419       .   S
C2015     C2016 1.422       .   S
C2015     C2020 1.419       .   S
C2016     C2019 1.417       .   S
C2017     C2018 1.413       .   S
C2017     C2047 1.484       .   S
C2018     C2019 1.418       .   D
C2018     C2031 1.412       .   S
C2019     C2022 1.415       .   S
C2020     C2021 1.411       .   D
C2020     C2023 1.418       .   S
C2021     C2022 1.410       .   S
C2021     C2034 1.413       .   S
C2022     C2029 1.415       .   D
C2023     C2024 1.408       .   S
C2023     C2036 1.414       .   D
C2024     C2025 1.414       .   D
C2024     C2040 1.420       .   S
C2025     C2026 1.412       .   S
C2026     C2027 1.394       .   D
C2026     C2042 1.397       .   S
C2027     C2028 1.389       .   S
C2027     H2062 1.084       .   S
C2028     H2063 1.076       .   S
C2029     C2030 1.395       .   S
C2029     C2032 1.400       .   S
C2030     C2031 1.390       .   D
C2030     H2064 1.084       .   S
C2031     H2065 1.082       .   S
C2032     C2033 1.398       .   D
C2032     H2066 1.085       .   S
C2033     C2034 1.414       .   S
C2033     C2037 1.402       .   S
C2034     C2035 1.410       .   D
C2035     C2036 1.413       .   S
C2035     C2039 1.413       .   S
C2036     C2043 1.417       .   S
C2037     C2038 1.395       .   D
C2037     H2067 1.084       .   S
C2038     C2039 1.401       .   S
C2038     H2068 1.084       .   S
C2039     C2045 1.397       .   D
C2040     C2041 1.410       .   S
C2040     C2044 1.417       .   D
C2041     C2042 1.390       .   D
C2041     H2069 1.082       .   S
C2042     H2070 1.084       .   S
C2043     C2044 1.415       .   S
C2043     C2046 1.412       .   D
C2044     C2048 1.483       .   S
C2045     C2046 1.393       .   S
C2045     H2071 1.084       .   S
C2046     H2072 1.082       .   S
C2047     C2049 1.403       .   S
C2047     C2053 1.403       .   D
C2048     C2054 1.403       .   D
C2048     C2058 1.403       .   S
C2049     C2050 1.398       .   D
C2049     H2073 1.083       .   S
C2050     C2051 1.398       .   S
C2050     H2074 1.082       .   S
C2051     C2052 1.398       .   D
C2052     C2053 1.398       .   S
C2052     H2076 1.082       .   S
C2053     H2077 1.083       .   S
C2054     C2055 1.398       .   S
C2054     H2078 1.084       .   S
C2055     C2056 1.399       .   D
C2055     H2079 1.083       .   S
C2056     C2057 1.399       .   S
C2057     C2058 1.399       .   D
C2057     H2081 1.083       .   S
C2058     H2082 1.084       .   S
C1933     C1934 1.410       .   S
C1933     C1938 1.386       .   D
C1933     H1985 1.082       .   S
C1934     C1935 1.423       .   S
C1934     C1943 1.415       .   D
C1935     C1936 1.419       .   S
C1935     C1942 1.417       .   D
C1936     C1937 1.412       .   D
C1936     C1939 1.496       .   S
C1937     C1938 1.388       .   S
C1937     H1986 1.076       .   S
C1938     H1987 1.083       .   S
C1939     C1940 1.416       .   S
C1939     C1954 1.412       .   D
C1940     C1941 1.415       .   D
C1940     C1951 1.419       .   S
C1941     C1942 1.422       .   S
C1941     C1946 1.419       .   S
C1942     C1945 1.417       .   S
C1943     C1944 1.413       .   S
C1943     C1973 1.484       .   S
C1944     C1945 1.418       .   D
C1944     C1957 1.412       .   S
C1945     C1948 1.415       .   S
C1946     C1947 1.411       .   D
C1946     C1949 1.418       .   S
C1947     C1948 1.410       .   S
C1947     C1960 1.413       .   S
C1948     C1955 1.415       .   D
C1949     C1950 1.408       .   S
C1949     C1962 1.414       .   D
C1950     C1951 1.414       .   D
C1950     C1966 1.420       .   S
C1951     C1952 1.412       .   S
C1952     C1953 1.394       .   D
C1952     C1968 1.397       .   S
C1953     C1954 1.389       .   S
C1953     H1988 1.084       .   S
C1954     H1989 1.076       .   S
C1955     C1956 1.395       .   S
C1955     C1958 1.400       .   S
C1956     C1957 1.390       .   D
C1956     H1990 1.084       .   S
C1957     H1991 1.082       .   S
C1958     C1959 1.398       .   D
C1958     H1992 1.085       .   S
C1959     C1960 1.414       .   S
C1959     C1963 1.402       .   S
C1960     C1961 1.410       .   D
C1961     C1962 1.413       .   S
C1961     C1965 1.413       .   S
C1962     C1969 1.417       .   S
C1963     C1964 1.395       .   D
C1963     H1993 1.084       .   S
C1964     C1965 1.401       .   S
C1964     H1994 1.084       .   S
C1965     C1971 1.397       .   D
C1966     C1967 1.410       .   S
C1966     C1970 1.417       .   D
C1967     C1968 1.390       .   D
C1967     H1995 1.082       .   S
C1968     H1996 1.084       .   S
C1969     C1970 1.415       .   S
C1969     C1972 1.412       .   D
C1970     C1974 1.483       .   S
C1971     C1972 1.393       .   S
C1971     H1997 1.084       .   S
C1972     H1998 1.082       .   S
C1973     C1975 1.403       .   S
C1973     C1979 1.403       .   D
C1974     C1980 1.403       .   D
C1974     C1984 1.403       .   S
C1975     C1976 1.398       .   D
C1975     H1999 1.083       .   S
C1976     C1977 1.398       .   S
C1976     H2000 1.082       .   S
C1977     C1978 1.398       .   D
C1978     C1979 1.398       .   S
C1978     H2002 1.082       .   S
C1979     H2003 1.083       .   S
C1980     C1981 1.398       .   S
C1980     H2004 1.084       .   S
C1981     C1982 1.399       .   D
C1981     H2005 1.083       .   S
C1982     C1983 1.399       .   S
C1983     C1984 1.399       .   D
C1983     H2007 1.083       .   S
C1984     H2008 1.084       .   S
C1859     C1860 1.410       .   S
C1859     C1864 1.386       .   D
C1859     H1911 1.082       .   S
C1860     C1861 1.423       .   S
C1860     C1869 1.415       .   D
C1861     C1862 1.419       .   S
C1861     C1868 1.417       .   D
C1862     C1863 1.412       .   D
C1862     C1865 1.496       .   S
C1863     C1864 1.388       .   S
C1863     H1912 1.076       .   S
C1864     H1913 1.083       .   S
C1865     C1866 1.416       .   S
C1865     C1880 1.412       .   D
C1866     C1867 1.415       .   D
C1866     C1877 1.419       .   S
C1867     C1868 1.422       .   S
C1867     C1872 1.419       .   S
C1868     C1871 1.417       .   S
C1869     C1870 1.413       .   S
C1869     C1899 1.484       .   S
C1870     C1871 1.418       .   D
C1870     C1883 1.412       .   S
C1871     C1874 1.415       .   S
C1872     C1873 1.411       .   D
C1872     C1875 1.418       .   S
C1873     C1874 1.410       .   S
C1873     C1886 1.413       .   S
C1874     C1881 1.415       .   D
C1875     C1876 1.408       .   S
C1875     C1888 1.414       .   D
C1876     C1877 1.414       .   D
C1876     C1892 1.420       .   S
C1877     C1878 1.412       .   S
C1878     C1879 1.394       .   D
C1878     C1894 1.397       .   S
C1879     C1880 1.389       .   S
C1879     H1914 1.084       .   S
C1880     H1915 1.076       .   S
C1881     C1882 1.395       .   S
C1881     C1884 1.400       .   S
C1882     C1883 1.390       .   D
C1882     H1916 1.084       .   S
C1883     H1917 1.082       .   S
C1884     C1885 1.398       .   D
C1884     H1918 1.085       .   S
C1885     C1886 1.414       .   S
C1885     C1889 1.402       .   S
C1886     C1887 1.410       .   D
C1887     C1888 1.413       .   S
C1887     C1891 1.413       .   S
C1888     C1895 1.417       .   S
C1889     C1890 1.395       .   D
C1889     H1919 1.084       .   S
C1890     C1891 1.401       .   S
C1890     H1920 1.084       .   S
C1891     C1897 1.397       .   D
C1892     C1893 1.410       .   S
C1892     C1896 1.417       .   D
C1893     C1894 1.390       .   D
C1893     H1921 1.082       .   S
C1894     H1922 1.084       .   S
C1895     C1896 1.415       .   S
C1895     C1898 1.412       .   D
C1896     C1900 1.483       .   S
C1897     C1898 1.393       .   S
C1897     H1923 1.084       .   S
C1898     H1924 1.082       .   S
C1899     C1901 1.403       .   S
C1899     C1905 1.403       .   D
C1900     C1906 1.403       .   D
C1900     C1910 1.403       .   S
C1901     C1902 1.398       .   D
C1901     H1925 1.083       .   S
C1902     C1903 1.398       .   S
C1902     H1926 1.082       .   S
C1903     C1904 1.398       .   D
C1904     C1905 1.398       .   S
C1904     H1928 1.082       .   S
C1905     H1929 1.083       .   S
C1906     C1907 1.398       .   S
C1906     H1930 1.084       .   S
C1907     C1908 1.399       .   D
C1907     H1931 1.083       .   S
C1908     C1909 1.399       .   S
C1909     C1910 1.399       .   D
C1909     H1933 1.083       .   S
C1910     H1934 1.084       .   S
C1785     C1786 1.410       .   S
C1785     C1790 1.386       .   D
C1785     H1837 1.082       .   S
C1786     C1787 1.423       .   S
C1786     C1795 1.415       .   D
C1787     C1788 1.419       .   S
C1787     C1794 1.417       .   D
C1788     C1789 1.412       .   D
C1788     C1791 1.496       .   S
C1789     C1790 1.388       .   S
C1789     H1838 1.076       .   S
C1790     H1839 1.083       .   S
C1791     C1792 1.416       .   S
C1791     C1806 1.412       .   D
C1792     C1793 1.415       .   D
C1792     C1803 1.419       .   S
C1793     C1794 1.422       .   S
C1793     C1798 1.419       .   S
C1794     C1797 1.417       .   S
C1795     C1796 1.413       .   S
C1795     C1825 1.484       .   S
C1796     C1797 1.418       .   D
C1796     C1809 1.412       .   S
C1797     C1800 1.415       .   S
C1798     C1799 1.411       .   D
C1798     C1801 1.418       .   S
C1799     C1800 1.410       .   S
C1799     C1812 1.413       .   S
C1800     C1807 1.415       .   D
C1801     C1802 1.408       .   S
C1801     C1814 1.414       .   D
C1802     C1803 1.414       .   D
C1802     C1818 1.420       .   S
C1803     C1804 1.412       .   S
C1804     C1805 1.394       .   D
C1804     C1820 1.397       .   S
C1805     C1806 1.389       .   S
C1805     H1840 1.084       .   S
C1806     H1841 1.076       .   S
C1807     C1808 1.395       .   S
C1807     C1810 1.400       .   S
C1808     C1809 1.390       .   D
C1808     H1842 1.084       .   S
C1809     H1843 1.082       .   S
C1810     C1811 1.398       .   D
C1810     H1844 1.085       .   S
C1811     C1812 1.414       .   S
C1811     C1815 1.402       .   S
C1812     C1813 1.410       .   D
C1813     C1814 1.413       .   S
C1813     C1817 1.413       .   S
C1814     C1821 1.417       .   S
C1815     C1816 1.395       .   D
C1815     H1845 1.084       .   S
C1816     C1817 1.401       .   S
C1816     H1846 1.084       .   S
C1817     C1823 1.397       .   D
C1818     C1819 1.410       .   S
C1818     C1822 1.417       .   D
C1819     C1820 1.390       .   D
C1819     H1847 1.082       .   S
C1820     H1848 1.084       .   S
C1821     C1822 1.415       .   S
C1821     C1824 1.412       .   D
C1822     C1826 1.483       .   S
C1823     C1824 1.393       .   S
C1823     H1849 1.084       .   S
C1824     H1850 1.082       .   S
C1825     C1827 1.403       .   S
C1825     C1831 1.403       .   D
C1826     C1832 1.403       .   D
C1826     C1836 1.403       .   S
C1827     C1828 1.398       .   D
C1827     H1851 1.083       .   S
C1828     C1829 1.398       .   S
C1828     H1852 1.082       .   S
C1829     C1830 1.398       .   D
C1830     C1831 1.398       .   S
C1830     H1854 1.082       .   S
C1831     H1855 1.083       .   S
C1832     C1833 1.398       .   S
C1832     H1856 1.084       .   S
C1833     C1834 1.399       .   D
C1833     H1857 1.083       .   S
C1834     C1835 1.399       .   S
C1835     C1836 1.399       .   D
C1835     H1859 1.083       .   S
C1836     H1860 1.084       .   S
C1711     C1712 1.410       .   S
C1711     C1716 1.386       .   D
C1711     H1763 1.082       .   S
C1712     C1713 1.423       .   S
C1712     C1721 1.415       .   D
C1713     C1714 1.419       .   S
C1713     C1720 1.417       .   D
C1714     C1715 1.412       .   D
C1714     C1717 1.496       .   S
C1715     C1716 1.388       .   S
C1715     H1764 1.076       .   S
C1716     H1765 1.083       .   S
C1717     C1718 1.416       .   S
C1717     C1732 1.412       .   D
C1718     C1719 1.415       .   D
C1718     C1729 1.419       .   S
C1719     C1720 1.422       .   S
C1719     C1724 1.419       .   S
C1720     C1723 1.417       .   S
C1721     C1722 1.413       .   S
C1721     C1751 1.484       .   S
C1722     C1723 1.418       .   D
C1722     C1735 1.412       .   S
C1723     C1726 1.415       .   S
C1724     C1725 1.411       .   D
C1724     C1727 1.418       .   S
C1725     C1726 1.410       .   S
C1725     C1738 1.413       .   S
C1726     C1733 1.415       .   D
C1727     C1728 1.408       .   S
C1727     C1740 1.414       .   D
C1728     C1729 1.414       .   D
C1728     C1744 1.420       .   S
C1729     C1730 1.412       .   S
C1730     C1731 1.394       .   D
C1730     C1746 1.397       .   S
C1731     C1732 1.389       .   S
C1731     H1766 1.084       .   S
C1732     H1767 1.076       .   S
C1733     C1734 1.395       .   S
C1733     C1736 1.400       .   S
C1734     C1735 1.390       .   D
C1734     H1768 1.084       .   S
C1735     H1769 1.082       .   S
C1736     C1737 1.398       .   D
C1736     H1770 1.085       .   S
C1737     C1738 1.414       .   S
C1737     C1741 1.402       .   S
C1738     C1739 1.410       .   D
C1739     C1740 1.413       .   S
C1739     C1743 1.413       .   S
C1740     C1747 1.417       .   S
C1741     C1742 1.395       .   D
C1741     H1771 1.084       .   S
C1742     C1743 1.401       .   S
C1742     H1772 1.084       .   S
C1743     C1749 1.397       .   D
C1744     C1745 1.410       .   S
C1744     C1748 1.417       .   D
C1745     C1746 1.390       .   D
C1745     H1773 1.082       .   S
C1746     H1774 1.084       .   S
C1747     C1748 1.415       .   S
C1747     C1750 1.412       .   D
C1748     C1752 1.483       .   S
C1749     C1750 1.393       .   S
C1749     H1775 1.084       .   S
C1750     H1776 1.082       .   S
C1751     C1753 1.403       .   S
C1751     C1757 1.403       .   D
C1752     C1758 1.403       .   D
C1752     C1762 1.403       .   S
C1753     C1754 1.398       .   D
C1753     H1777 1.083       .   S
C1754     C1755 1.398       .   S
C1754     H1778 1.082       .   S
C1755     C1756 1.398       .   D
C1756     C1757 1.398       .   S
C1756     H1780 1.082       .   S
C1757     H1781 1.083       .   S
C1758     C1759 1.398       .   S
C1758     H1782 1.084       .   S
C1759     C1760 1.399       .   D
C1759     H1783 1.083       .   S
C1760     C1761 1.399       .   S
C1761     C1762 1.399       .   D
C1761     H1785 1.083       .   S
C1762     H1786 1.084       .   S
C1637     C1638 1.410       .   S
C1637     C1642 1.386       .   D
C1637     H1689 1.082       .   S
C1638     C1639 1.423       .   S
C1638     C1647 1.415       .   D
C1639     C1640 1.419       .   S
C1639     C1646 1.417       .   D
C1640     C1641 1.412       .   D
C1640     C1643 1.496       .   S
C1641     C1642 1.388       .   S
C1641     H1690 1.076       .   S
C1642     H1691 1.083       .   S
C1643     C1644 1.416       .   S
C1643     C1658 1.412       .   D
C1644     C1645 1.415       .   D
C1644     C1655 1.419       .   S
C1645     C1646 1.422       .   S
C1645     C1650 1.419       .   S
C1646     C1649 1.417       .   S
C1647     C1648 1.413       .   S
C1647     C1677 1.484       .   S
C1648     C1649 1.418       .   D
C1648     C1661 1.412       .   S
C1649     C1652 1.415       .   S
C1650     C1651 1.411       .   D
C1650     C1653 1.418       .   S
C1651     C1652 1.410       .   S
C1651     C1664 1.413       .   S
C1652     C1659 1.415       .   D
C1653     C1654 1.408       .   S
C1653     C1666 1.414       .   D
C1654     C1655 1.414       .   D
C1654     C1670 1.420       .   S
C1655     C1656 1.412       .   S
C1656     C1657 1.394       .   D
C1656     C1672 1.397       .   S
C1657     C1658 1.389       .   S
C1657     H1692 1.084       .   S
C1658     H1693 1.076       .   S
C1659     C1660 1.395       .   S
C1659     C1662 1.400       .   S
C1660     C1661 1.390       .   D
C1660     H1694 1.084       .   S
C1661     H1695 1.082       .   S
C1662     C1663 1.398       .   D
C1662     H1696 1.085       .   S
C1663     C1664 1.414       .   S
C1663     C1667 1.402       .   S
C1664     C1665 1.410       .   D
C1665     C1666 1.413       .   S
C1665     C1669 1.413       .   S
C1666     C1673 1.417       .   S
C1667     C1668 1.395       .   D
C1667     H1697 1.084       .   S
C1668     C1669 1.401       .   S
C1668     H1698 1.084       .   S
C1669     C1675 1.397       .   D
C1670     C1671 1.410       .   S
C1670     C1674 1.417       .   D
C1671     C1672 1.390       .   D
C1671     H1699 1.082       .   S
C1672     H1700 1.084       .   S
C1673     C1674 1.415       .   S
C1673     C1676 1.412       .   D
C1674     C1678 1.483       .   S
C1675     C1676 1.393       .   S
C1675     H1701 1.084       .   S
C1676     H1702 1.082       .   S
C1677     C1679 1.403       .   S
C1677     C1683 1.403       .   D
C1678     C1684 1.403       .   D
C1678     C1688 1.403       .   S
C1679     C1680 1.398       .   D
C1679     H1703 1.083       .   S
C1680     C1681 1.398       .   S
C1680     H1704 1.082       .   S
C1681     C1682 1.398       .   D
C1682     C1683 1.398       .   S
C1682     H1706 1.082       .   S
C1683     H1707 1.083       .   S
C1684     C1685 1.398       .   S
C1684     H1708 1.084       .   S
C1685     C1686 1.399       .   D
C1685     H1709 1.083       .   S
C1686     C1687 1.399       .   S
C1687     C1688 1.399       .   D
C1687     H1711 1.083       .   S
C1688     H1712 1.084       .   S
C1563     C1564 1.410       .   S
C1563     C1568 1.386       .   D
C1563     H1615 1.082       .   S
C1564     C1565 1.423       .   S
C1564     C1573 1.415       .   D
C1565     C1566 1.419       .   S
C1565     C1572 1.417       .   D
C1566     C1567 1.412       .   D
C1566     C1569 1.496       .   S
C1567     C1568 1.388       .   S
C1567     H1616 1.076       .   S
C1568     H1617 1.083       .   S
C1569     C1570 1.416       .   S
C1569     C1584 1.412       .   D
C1570     C1571 1.415       .   D
C1570     C1581 1.419       .   S
C1571     C1572 1.422       .   S
C1571     C1576 1.419       .   S
C1572     C1575 1.417       .   S
C1573     C1574 1.413       .   S
C1573     C1603 1.484       .   S
C1574     C1575 1.418       .   D
C1574     C1587 1.412       .   S
C1575     C1578 1.415       .   S
C1576     C1577 1.411       .   D
C1576     C1579 1.418       .   S
C1577     C1578 1.410       .   S
C1577     C1590 1.413       .   S
C1578     C1585 1.415       .   D
C1579     C1580 1.408       .   S
C1579     C1592 1.414       .   D
C1580     C1581 1.414       .   D
C1580     C1596 1.420       .   S
C1581     C1582 1.412       .   S
C1582     C1583 1.394       .   D
C1582     C1598 1.397       .   S
C1583     C1584 1.389       .   S
C1583     H1618 1.084       .   S
C1584     H1619 1.076       .   S
C1585     C1586 1.395       .   S
C1585     C1588 1.400       .   S
C1586     C1587 1.390       .   D
C1586     H1620 1.084       .   S
C1587     H1621 1.082       .   S
C1588     C1589 1.398       .   D
C1588     H1622 1.085       .   S
C1589     C1590 1.414       .   S
C1589     C1593 1.402       .   S
C1590     C1591 1.410       .   D
C1591     C1592 1.413       .   S
C1591     C1595 1.413       .   S
C1592     C1599 1.417       .   S
C1593     C1594 1.395       .   D
C1593     H1623 1.084       .   S
C1594     C1595 1.401       .   S
C1594     H1624 1.084       .   S
C1595     C1601 1.397       .   D
C1596     C1597 1.410       .   S
C1596     C1600 1.417       .   D
C1597     C1598 1.390       .   D
C1597     H1625 1.082       .   S
C1598     H1626 1.084       .   S
C1599     C1600 1.415       .   S
C1599     C1602 1.412       .   D
C1600     C1604 1.483       .   S
C1601     C1602 1.393       .   S
C1601     H1627 1.084       .   S
C1602     H1628 1.082       .   S
C1603     C1605 1.403       .   S
C1603     C1609 1.403       .   D
C1604     C1610 1.403       .   D
C1604     C1614 1.403       .   S
C1605     C1606 1.398       .   D
C1605     H1629 1.083       .   S
C1606     C1607 1.398       .   S
C1606     H1630 1.082       .   S
C1607     C1608 1.398       .   D
C1608     C1609 1.398       .   S
C1608     H1632 1.082       .   S
C1609     H1633 1.083       .   S
C1610     C1611 1.398       .   S
C1610     H1634 1.084       .   S
C1611     C1612 1.399       .   D
C1611     H1635 1.083       .   S
C1612     C1613 1.399       .   S
C1613     C1614 1.399       .   D
C1613     H1637 1.083       .   S
C1614     H1638 1.084       .   S
C1489     C1490 1.410       .   S
C1489     C1494 1.386       .   D
C1489     H1541 1.082       .   S
C1490     C1491 1.423       .   S
C1490     C1499 1.415       .   D
C1491     C1492 1.419       .   S
C1491     C1498 1.417       .   D
C1492     C1493 1.412       .   D
C1492     C1495 1.496       .   S
C1493     C1494 1.388       .   S
C1493     H1542 1.076       .   S
C1494     H1543 1.083       .   S
C1495     C1496 1.416       .   S
C1495     C1510 1.412       .   D
C1496     C1497 1.415       .   D
C1496     C1507 1.419       .   S
C1497     C1498 1.422       .   S
C1497     C1502 1.419       .   S
C1498     C1501 1.417       .   S
C1499     C1500 1.413       .   S
C1499     C1529 1.484       .   S
C1500     C1501 1.418       .   D
C1500     C1513 1.412       .   S
C1501     C1504 1.415       .   S
C1502     C1503 1.411       .   D
C1502     C1505 1.418       .   S
C1503     C1504 1.410       .   S
C1503     C1516 1.413       .   S
C1504     C1511 1.415       .   D
C1505     C1506 1.408       .   S
C1505     C1518 1.414       .   D
C1506     C1507 1.414       .   D
C1506     C1522 1.420       .   S
C1507     C1508 1.412       .   S
C1508     C1509 1.394       .   D
C1508     C1524 1.397       .   S
C1509     C1510 1.389       .   S
C1509     H1544 1.084       .   S
C1510     H1545 1.076       .   S
C1511     C1512 1.395       .   S
C1511     C1514 1.400       .   S
C1512     C1513 1.390       .   D
C1512     H1546 1.084       .   S
C1513     H1547 1.082       .   S
C1514     C1515 1.398       .   D
C1514     H1548 1.085       .   S
C1515     C1516 1.414       .   S
C1515     C1519 1.402       .   S
C1516     C1517 1.410       .   D
C1517     C1518 1.413       .   S
C1517     C1521 1.413       .   S
C1518     C1525 1.417       .   S
C1519     C1520 1.395       .   D
C1519     H1549 1.084       .   S
C1520     C1521 1.401       .   S
C1520     H1550 1.084       .   S
C1521     C1527 1.397       .   D
C1522     C1523 1.410       .   S
C1522     C1526 1.417       .   D
C1523     C1524 1.390       .   D
C1523     H1551 1.082       .   S
C1524     H1552 1.084       .   S
C1525     C1526 1.415       .   S
C1525     C1528 1.412       .   D
C1526     C1530 1.483       .   S
C1527     C1528 1.393       .   S
C1527     H1553 1.084       .   S
C1528     H1554 1.082       .   S
C1529     C1531 1.403       .   S
C1529     C1535 1.403       .   D
C1530     C1536 1.403       .   D
C1530     C1540 1.403       .   S
C1531     C1532 1.398       .   D
C1531     H1555 1.083       .   S
C1532     C1533 1.398       .   S
C1532     H1556 1.082       .   S
C1533     C1534 1.398       .   D
C1534     C1535 1.398       .   S
C1534     H1558 1.082       .   S
C1535     H1559 1.083       .   S
C1536     C1537 1.398       .   S
C1536     H1560 1.084       .   S
C1537     C1538 1.399       .   D
C1537     H1561 1.083       .   S
C1538     C1539 1.399       .   S
C1539     C1540 1.399       .   D
C1539     H1563 1.083       .   S
C1540     H1564 1.084       .   S
