data_pcl_v1-on15-3D_1-oe26
_audit_creation_date              2023-10-26
_audit_creation_method            'newmof'
_symmetry_space_group_name_H-M    'P1'
_symmetry_Int_Tables_number       1
_symmetry_cell_setting            triclinic
loop_
_symmetry_equiv_pos_as_xyz
  x,y,z
_cell_length_a                    57.560834903107796
_cell_length_b                    62.38061035259287
_cell_length_c                    55.77317447632778
_cell_angle_alpha                 89.99999905562177
_cell_angle_beta                  89.99998572738781
_cell_angle_gamma                 90.00000647682488
loop_
_atom_site_label
_atom_site_type_symbol
_atom_site_fract_x
_atom_site_fract_y
_atom_site_fract_z
_atom_site_charge
C1         C    0.3367379467    0.8223238587    0.4255956989         -0.0076
C2         C    0.3291879137    0.8035247819    0.4139846402         -0.0076
C3         C    0.3056361621    0.8007931225    0.4084440190         -0.0076
C4         C    0.2895193329    0.8166486971    0.4147036408         -0.0076
C5         C    0.2656263026    0.8144017918    0.4100048194         -0.0076
C6         C    0.2498806510    0.8304183633    0.4171060801         -0.0076
C7         C    0.2578150632    0.8487556477    0.4292188292         -0.0076
C8         C    0.2427253187    0.8650766324    0.4369425365         -0.0076
C9         C    0.2515536902    0.8829632896    0.4492712226         -0.0076
C10        C    0.2754539083    0.8842115800    0.4540219818         -0.0076
C11        C    0.2816431625    0.8509353893    0.4339819272         -0.0076
C12        C    0.2976139431    0.8351295311    0.4263854466         -0.0076
C13        C    0.4357730669    0.8303285564    0.4350944446         -0.0076
C14        C    0.2857396051    0.9024601212    0.4665813731         -0.0076
C15        C    0.2916580274    0.9005141734    0.4908189664         -0.0076
C16        C    0.3053222464    0.9161612926    0.5018181757         -0.0076
C17        C    0.3135706897    0.9337160963    0.4885674177         -0.0076
C18        C    0.3066621776    0.9361190108    0.4645302148         -0.0076
C19        C    0.2927757374    0.9205626969    0.4536261143         -0.0076
C20        C    0.3316944288    0.9474549503    0.4991260442         -0.0076
C21        C    0.3325989800    0.8488704612    0.4983642508         -0.0076
C22        C    0.3442394355    0.8529053964    0.5200491016         -0.0076
C23        C    0.3577091155    0.8715119268    0.5225273055         -0.0076
C24        C    0.3604402296    0.8854667333    0.5030073840         -0.0076
C25        C    0.3753646771    0.9032668495    0.5038939853         -0.0076
C26        C    0.3789541242    0.9158962307    0.4833866191         -0.0076
C27        C    0.3674267499    0.9110536273    0.4618381158         -0.0076
C28        C    0.3712515372    0.9227633827    0.4407607056         -0.0076
C29        C    0.3602600796    0.9166651232    0.4193964103         -0.0076
C30        C    0.3449941744    0.8990668106    0.4192630906         -0.0076
C31        C    0.3519479135    0.8936536033    0.4610503683         -0.0076
C32        C    0.3484453153    0.8808878333    0.4816864283         -0.0076
C33        C    0.2955413992    0.7651466358    0.4770238301         -0.0076
C34        C    0.3090922772    0.8594946749    0.3339213876         -0.0076
Cu35      Cu    0.3221850718    0.8641479715    0.4486634247             1.0
N36        N    0.3207699469    0.8376504741    0.4310762381         -0.0076
N37        N    0.2895115607    0.8682084192    0.4463266778         -0.0076
N38        N    0.3342666715    0.8634615896    0.4804109898         -0.0076
N39        N    0.3410225718    0.8884163520    0.4401520084         -0.0076
N40        N    0.4466780313    0.8470026367    0.4268400377         -0.0076
N41        N    0.3440427521    0.9599944553    0.4855619758         -0.0076
N42        N    0.2734569406    0.7613817234    0.4746449428         -0.0076
N43        N    0.3230222760    0.8500211847    0.3189530437         -0.0076
C44        C    0.3354966515    0.8907584075    0.3966223205         -0.0076
C45        C    0.3505616586    0.8856348307    0.3776870957         -0.0076
C46        C    0.3420596258    0.8757050088    0.3570560478         -0.0076
C47        C    0.3182762491    0.8709751985    0.3549554464         -0.0076
C48        C    0.3031342920    0.8767589552    0.3735938873         -0.0076
C49        C    0.3117194871    0.8865526009    0.3943030890         -0.0076
C50        C    0.4101401314    0.8295676199    0.4353741803         -0.0076
C51        C    0.3989407254    0.8107851158    0.4429817240         -0.0076
C52        C    0.3748613552    0.8087285455    0.4408006984         -0.0076
C53        C    0.3615832321    0.8254705046    0.4310426013         -0.0076
C54        C    0.3726203490    0.8445944855    0.4245026769         -0.0076
C55        C    0.3966959480    0.8467067676    0.4266552620         -0.0076
H56        H    0.3414601114    0.7911560948    0.4089735663         -0.0076
H57        H    0.3000443637    0.7863011804    0.3994270540         -0.0076
H58        H    0.2591184854    0.8002431849    0.4009815808         -0.0076
H59        H    0.2315550249    0.8283741286    0.4133433703         -0.0076
H60        H    0.2242473302    0.8640148325    0.4334813664         -0.0076
H61        H    0.2399352324    0.8955771894    0.4551078168         -0.0076
H62        H    0.4453411331    0.8164475655    0.4412952368         -0.0076
H63        H    0.2866543478    0.8863811688    0.5008575393         -0.0076
H64        H    0.3106646387    0.9138409328    0.5202631648         -0.0076
H65        H    0.3129077986    0.9494220083    0.4538450399         -0.0076
H66        H    0.2885580630    0.9220743704    0.4347738228         -0.0076
H67        H    0.3369896007    0.9440709888    0.5173462872         -0.0076
H68        H    0.3433960293    0.8414812076    0.5346516393         -0.0076
H69        H    0.3667806989    0.8744388423    0.5392204296         -0.0076
H70        H    0.3846679112    0.9070954729    0.5202263147         -0.0076
H71        H    0.3910025977    0.9292008328    0.4842884489         -0.0076
H72        H    0.3831602953    0.9362028014    0.4406465888         -0.0076
H73        H    0.3638721039    0.9254127328    0.4030452971         -0.0076
H74        H    0.3080034229    0.7522045839    0.4756453765         -0.0076
H75        H    0.2904440729    0.8576666724    0.3322130348         -0.0076
H76        H    0.3690455173    0.8886173175    0.3792467143         -0.0076
H77        H    0.3541201289    0.8714726712    0.3429260007         -0.0076
H78        H    0.2847269212    0.8733178196    0.3723425636         -0.0076
H79        H    0.2998234591    0.8908723154    0.4084628450         -0.0076
H80        H    0.4089117852    0.7974152406    0.4498844458         -0.0076
H81        H    0.3666586901    0.7938580127    0.4461761097         -0.0076
H82        H    0.3627911119    0.8574020007    0.4164411272         -0.0076
H83        H    0.4048115439    0.8614145333    0.4206344728         -0.0076
C84        C    0.3222491093    0.8277999324    0.4936755250         -0.0076
C85        C    0.2990699499    0.8254644734    0.4866662504         -0.0076
C86        C    0.2902360979    0.8051191966    0.4811337708         -0.0076
C87        C    0.3045209669    0.7867864333    0.4821703213         -0.0076
C88        C    0.3279470300    0.7887670838    0.4887076680         -0.0076
C89        C    0.3371697710    0.8086224297    0.4947222742         -0.0076
H90        H    0.2877944237    0.8393263365    0.4856166013         -0.0076
H91        H    0.2721882262    0.8037316340    0.4758760680         -0.0076
H92        H    0.3391188163    0.7748017011    0.4894081559         -0.0076
H93        H    0.3553028785    0.8099400768    0.4996739494         -0.0076
C94        C    0.1507301758    0.6377848103    0.5577913243         -0.0076
C95        C    0.1591636496    0.6367392667    0.5341162284         -0.0076
C96        C    0.1825513035    0.6318537164    0.5298292009         -0.0076
C97        C    0.1976469150    0.6282523144    0.5491010017         -0.0076
C98        C    0.2213787757    0.6237815522    0.5457001015         -0.0076
C99        C    0.2361351714    0.6207981332    0.5655078266         -0.0076
C100       C    0.2273819526    0.6224821557    0.5889442291         -0.0076
C101       C    0.2414927535    0.6198988312    0.6093153453         -0.0076
C102       C    0.2318967168    0.6220289663    0.6323692567         -0.0076
C103       C    0.2082407638    0.6270028722    0.6348071210         -0.0076
C104       C    0.2037234702    0.6270298163    0.5923114744         -0.0076
C105       C    0.1887004056    0.6295418367    0.5724715186         -0.0076
C106       C    0.0519542869    0.6490438043    0.5659412905         -0.0076
C107       C    0.1971762523    0.6292576416    0.6582646102         -0.0076
C108       C    0.1926882017    0.6497376190    0.6673946186         -0.0076
C109       C    0.1783883152    0.6522176641    0.6874104598         -0.0076
C110       C    0.1680783774    0.6342635135    0.6982314329         -0.0076
C111       C    0.1735259176    0.6136559263    0.6896884124         -0.0076
C112       C    0.1880446871    0.6111922525    0.6698160767         -0.0076
C113       C    0.1494685323    0.6376137408    0.7159670887         -0.0076
C114       C    0.1564646107    0.6826501335    0.6181402203         -0.0076
C115       C    0.1456654471    0.6987812499    0.6317485899         -0.0076
C116       C    0.1308819612    0.6931516744    0.6507235710         -0.0076
C117       C    0.1260330297    0.6714967065    0.6552963255         -0.0076
C118       C    0.1097837607    0.6650929636    0.6726704660         -0.0076
C119       C    0.1041358995    0.6433357669    0.6754364322         -0.0076
C120       C    0.1148944987    0.6276941462    0.6610886284         -0.0076
C121       C    0.1090569372    0.6059297368    0.6626698960         -0.0076
C122       C    0.1193924339    0.5910543252    0.6471443275         -0.0076
C123       C    0.1360043044    0.5979337519    0.6303353933         -0.0076
C124       C    0.1316687245    0.6339492304    0.6441794727         -0.0076
C125       C    0.1372477110    0.6558776125    0.6413350538         -0.0076
C126       C    0.1990073575    0.7017116586    0.5270097870         -0.0076
C127       C    0.1705439556    0.5461470977    0.5529438569         -0.0076
Cu128     Cu    0.1630440204    0.6355668881    0.6105010461             1.0
N129       N    0.1656800154    0.6338240693    0.5761707028         -0.0076
N130       N    0.1951336176    0.6293839631    0.6148070423         -0.0076
N131       N    0.1527041612    0.6618577448    0.6241175152         -0.0076
N132       N    0.1418930802    0.6190486454    0.6297193589         -0.0076
N133       N    0.0393272993    0.6356413000    0.5781095514         -0.0076
N134       N    0.1354634482    0.6220393521    0.7215117004         -0.0076
N135       N    0.2211799570    0.6999103164    0.5231140156         -0.0076
N136       N    0.1566635048    0.5397585119    0.5360106712         -0.0076
C137       C    0.1449642541    0.5831847643    0.6119669551         -0.0076
C138       C    0.1293989562    0.5717392735    0.5974348177         -0.0076
C139       C    0.1376016657    0.5594013580    0.5783590401         -0.0076
C140       C    0.1615580937    0.5581377487    0.5737113210         -0.0076
C141       C    0.1771315817    0.5690379821    0.5887607747         -0.0076
C142       C    0.1688610473    0.5815068076    0.6077348953         -0.0076
C143       C    0.0775557027    0.6476854848    0.5664044936         -0.0076
C144       C    0.0906122966    0.6615297325    0.5518632119         -0.0076
C145       C    0.1146441389    0.6589446570    0.5498325363         -0.0076
C146       C    0.1260161614    0.6425019902    0.5623900420         -0.0076
C147       C    0.1131487037    0.6293305181    0.5777735874         -0.0076
C148       C    0.0891146664    0.6318671046    0.5798462201         -0.0076
H149       H    0.1476802343    0.6394249611    0.5190355905         -0.0076
H150       H    0.1888216796    0.6310126938    0.5115378811         -0.0076
H151       H    0.2285341831    0.6227124936    0.5277740649         -0.0076
H152       H    0.2543548325    0.6173920983    0.5625081911         -0.0076
H153       H    0.2598005919    0.6162652529    0.6074337501         -0.0076
H154       H    0.2427519257    0.6199308872    0.6480495759         -0.0076
H155       H    0.0438631881    0.6610761877    0.5547093332         -0.0076
H156       H    0.1993259629    0.6638186045    0.6583200995         -0.0076
H157       H    0.1742055310    0.6682542778    0.6934933053         -0.0076
H158       H    0.1656849048    0.5995416892    0.6975885009         -0.0076
H159       H    0.1911515679    0.5952926195    0.6626964357         -0.0076
H160       H    0.1454068102    0.6539610079    0.7208959357         -0.0076
H161       H    0.1481774538    0.7155265775    0.6273036909         -0.0076
H162       H    0.1224728978    0.7056606738    0.6610175798         -0.0076
H163       H    0.1010528354    0.6769177741    0.6836775859         -0.0076
H164       H    0.0911132539    0.6388054080    0.6884963672         -0.0076
H165       H    0.0961102178    0.6005244847    0.6753951783         -0.0076
H166       H    0.1142487479    0.5743743414    0.6480112489         -0.0076
H167       H    0.1875682565    0.7075444996    0.5130485937         -0.0076
H168       H    0.1891733010    0.5442386489    0.5511296722         -0.0076
H169       H    0.1108326683    0.5729842739    0.6003275956         -0.0076
H170       H    0.1252041750    0.5511110803    0.5670758802         -0.0076
H171       H    0.1956745096    0.5682541361    0.5855552464         -0.0076
H172       H    0.1810892476    0.5897925399    0.6191113065         -0.0076
H173       H    0.0821149150    0.6739103616    0.5414467067         -0.0076
H174       H    0.1242865852    0.6694441935    0.5379897214         -0.0076
H175       H    0.1214904111    0.6163056669    0.5870878542         -0.0076
H176       H    0.0795387715    0.6209267454    0.5912308680         -0.0076
C177       C    0.1682257776    0.6879085551    0.5955670593         -0.0076
C178       C    0.1911348227    0.6817084862    0.5909709007         -0.0076
C179       C    0.2012844483    0.6860797558    0.5686568626         -0.0076
C180       C    0.1885885258    0.6964482636    0.5504170493         -0.0076
C181       C    0.1654378532    0.7024583689    0.5544320002         -0.0076
C182       C    0.1549652486    0.6987234799    0.5764702202         -0.0076
H183       H    0.2011932215    0.6736229548    0.6046585558         -0.0076
H184       H    0.2190976165    0.6812108639    0.5655972557         -0.0076
H185       H    0.1554731013    0.7103082871    0.5404835861         -0.0076
H186       H    0.1370570595    0.7033895131    0.5793143985         -0.0076
C187       C    0.1507158599    0.3594793935    0.4628386434         -0.0076
C188       C    0.1591491156    0.3605244183    0.4865138464         -0.0076
C189       C    0.1825369140    0.3654091500    0.4908011962         -0.0076
C190       C    0.1976328775    0.3690102465    0.4715296092         -0.0076
C191       C    0.2213648761    0.3734801877    0.4749308303         -0.0076
C192       C    0.2361216054    0.3764633178    0.4551233073         -0.0076
C193       C    0.2273685771    0.3747798223    0.4316867860         -0.0076
C194       C    0.2414797021    0.3773628849    0.4113158597         -0.0076
C195       C    0.2318838343    0.3752333009    0.3882618145         -0.0076
C196       C    0.2082277130    0.3702602037    0.3858236237         -0.0076
C197       C    0.2037099534    0.3702329799    0.4283192196         -0.0076
C198       C    0.1886865733    0.3677212569    0.4481589763         -0.0076
C199       C    0.0519396192    0.3482237559    0.4546874343         -0.0076
C200       C    0.1971633700    0.3680060381    0.3623659827         -0.0076
C201       C    0.1926746170    0.3475263017    0.3532356655         -0.0076
C202       C    0.1783748524    0.3450469329    0.3332196336         -0.0076
C203       C    0.1680657363    0.3630015346    0.3223987725         -0.0076
C204       C    0.1735139904    0.3836088549    0.3309421143         -0.0076
C205       C    0.1880326389    0.3860718466    0.3508146429         -0.0076
C206       C    0.1494559541    0.3596521033    0.3046628671         -0.0076
C207       C    0.1564491977    0.3146144901    0.4024892440         -0.0076
C208       C    0.1456495511    0.2984838692    0.3888805501         -0.0076
C209       C    0.1308664934    0.3041141265    0.3699054756         -0.0076
C210       C    0.1260184602    0.3257693013    0.3653329408         -0.0076
C211       C    0.1097696322    0.3321737584    0.3479587002         -0.0076
C212       C    0.1041226536    0.3539311702    0.3451929461         -0.0076
C213       C    0.1148817085    0.3695722893    0.3595410676         -0.0076
C214       C    0.1090450169    0.3913369081    0.3579600101         -0.0076
C215       C    0.1193809265    0.4062118202    0.3734858818         -0.0076
C216       C    0.1359923435    0.3993316731    0.3902949141         -0.0076
C217       C    0.1316555043    0.3633164782    0.3764503311         -0.0076
C218       C    0.1372336006    0.3413878825    0.3792945349         -0.0076
C219       C    0.1989902005    0.2955506339    0.4936199103         -0.0076
C220       C    0.1705331764    0.4511164003    0.4676874901         -0.0076
Cu221     Cu    0.1630303682    0.3616974402    0.4101290868             1.0
N222       N    0.1656660558    0.3634398247    0.4444594815         -0.0076
N223       N    0.1951202548    0.3678793452    0.4058235263         -0.0076
N224       N    0.1526896281    0.3354070638    0.3965121700         -0.0076
N225       N    0.1418802854    0.3782165782    0.3909107472         -0.0076
N226       N    0.0393132899    0.3616268017    0.4425192022         -0.0076
N227       N    0.1354515407    0.3752270123    0.2991182962         -0.0076
N228       N    0.2211628279    0.2973512019    0.4975159515         -0.0076
N229       N    0.1566527907    0.4575052750    0.4846206019         -0.0076
C230       C    0.1449526700    0.4140801781    0.4086636386         -0.0076
C231       C    0.1293876614    0.4255260380    0.4231957473         -0.0076
C232       C    0.1375906455    0.4378634888    0.4422717723         -0.0076
C233       C    0.1615470722    0.4391262570    0.4469197742         -0.0076
C234       C    0.1771202978    0.4282256595    0.4318703562         -0.0076
C235       C    0.1688494826    0.4157572999    0.4128959859         -0.0076
C236       C    0.0775410933    0.3495812315    0.4542245336         -0.0076
C237       C    0.0905969857    0.3357364041    0.4687657857         -0.0076
C238       C    0.1146289071    0.3383206625    0.4707967618         -0.0076
C239       C    0.1260017111    0.3547630792    0.4582395907         -0.0076
C240       C    0.1131349378    0.3679351333    0.4428560684         -0.0076
C241       C    0.0891008238    0.3653993644    0.4407831359         -0.0076
H242       H    0.1476654301    0.3578389521    0.5015943224         -0.0076
H243       H    0.1888071229    0.3662497800    0.5090925966         -0.0076
H244       H    0.2285201292    0.3745488280    0.4928569602         -0.0076
H245       H    0.2543413671    0.3798687184    0.4581231888         -0.0076
H246       H    0.2597876622    0.3809958374    0.4131977049         -0.0076
H247       H    0.2427392969    0.3773311786    0.3725816427         -0.0076
H248       H    0.0438479262    0.3361915271    0.4659191493         -0.0076
H249       H    0.1993117273    0.3334450045    0.3623100805         -0.0076
H250       H    0.1741915066    0.3290105193    0.3271365387         -0.0076
H251       H    0.1656736169    0.3977234317    0.3230421168         -0.0076
H252       H    0.1911400646    0.4019713046    0.3579345196         -0.0076
H253       H    0.1453936456    0.3433050207    0.2997337681         -0.0076
H254       H    0.1481608532    0.2817384135    0.3933252655         -0.0076
H255       H    0.1224570526    0.2916055099    0.3596112148         -0.0076
H256       H    0.1010383642    0.3203493486    0.3369513335         -0.0076
H257       H    0.0911003285    0.3584620927    0.3321329233         -0.0076
H258       H    0.0960986486    0.3967427180    0.3452346519         -0.0076
H259       H    0.1142379034    0.4228919834    0.3726191140         -0.0076
H260       H    0.1875507182    0.2897180311    0.5075809024         -0.0076
H261       H    0.1891625767    0.4530242133    0.4695019064         -0.0076
H262       H    0.1108213564    0.4242816821    0.4203027468         -0.0076
H263       H    0.1251933561    0.4461540634    0.4535548988         -0.0076
H264       H    0.1956632213    0.4290088585    0.4350761010         -0.0076
H265       H    0.1810774828    0.4074712773    0.4015196062         -0.0076
H266       H    0.0820990052    0.3233559513    0.4791820398         -0.0076
H267       H    0.1242708124    0.3278206867    0.4826395514         -0.0076
H268       H    0.1214772572    0.3809598022    0.4335420592         -0.0076
H269       H    0.0795254821    0.3763401560    0.4293985196         -0.0076
C270       C    0.1682099116    0.3093554505    0.4250624696         -0.0076
C271       C    0.1911191493    0.3155547137    0.4296589618         -0.0076
C272       C    0.2012683595    0.3111828822    0.4519730577         -0.0076
C273       C    0.1885718311    0.3008146108    0.4702125984         -0.0076
C274       C    0.1654209670    0.2948053135    0.4661973136         -0.0076
C275       C    0.1549487499    0.2985407724    0.4441590242         -0.0076
H276       H    0.2011780146    0.3236400500    0.4159715210         -0.0076
H277       H    0.2190816848    0.3160511527    0.4550329246         -0.0076
H278       H    0.1554557550    0.2869555846    0.4801455174         -0.0076
H279       H    0.1370404092    0.2938753615    0.4413145874         -0.0076
C280       C    0.3367262485    0.1749488916    0.5950265493         -0.0076
C281       C    0.3291754429    0.1937476691    0.6066376798         -0.0076
C282       C    0.3056235618    0.1964785302    0.6121782162         -0.0076
C283       C    0.2895073685    0.1806224537    0.6059184387         -0.0076
C284       C    0.2656142311    0.1828685533    0.6106171712         -0.0076
C285       C    0.2498692253    0.1668514957    0.6035157555         -0.0076
C286       C    0.2578043947    0.1485145255    0.5914029388         -0.0076
C287       C    0.2427153105    0.1321930790    0.5836790776         -0.0076
C288       C    0.2515444228    0.1143067663    0.5713503302         -0.0076
C289       C    0.2754447099    0.1130592821    0.5665996654         -0.0076
C290       C    0.2816325988    0.1463355878    0.5866399298         -0.0076
C291       C    0.2976027394    0.1621419372    0.5942365652         -0.0076
C292       C    0.4357617179    0.1669474897    0.5855281790         -0.0076
C293       C    0.2857311624    0.0948111343    0.5540402169         -0.0076
C294       C    0.2916496182    0.0967573835    0.5298026595         -0.0076
C295       C    0.3053144863    0.0811107617    0.5188034217         -0.0076
C296       C    0.3135635435    0.0635561707    0.5320541178         -0.0076
C297       C    0.3066550164    0.0611529231    0.5560912781         -0.0076
C298       C    0.2927679311    0.0767087327    0.5669954056         -0.0076
C299       C    0.3316878565    0.0498179587    0.5214954923         -0.0076
C300       C    0.3325886243    0.1484024740    0.5222578334         -0.0076
C301       C    0.3442293311    0.1443680170    0.5005730096         -0.0076
C302       C    0.3576997356    0.1257619401    0.4980947601         -0.0076
C303       C    0.3604312977    0.1118071373    0.5176146162         -0.0076
C304       C    0.3753564317    0.0940075153    0.5167279800         -0.0076
C305       C    0.3789462716    0.0813781616    0.5372352917         -0.0076
C306       C    0.3674186155    0.0862202912    0.5587837728         -0.0076
C307       C    0.3712437578    0.0745105685    0.5798611346         -0.0076
C308       C    0.3602519711    0.0806083726    0.6012254170         -0.0076
C309       C    0.3449853905    0.0982061830    0.6013587692         -0.0076
C310       C    0.3519391085    0.1036198032    0.5595715508         -0.0076
C311       C    0.3484361128    0.1163855491    0.5389355464         -0.0076
C312       C    0.2955277380    0.2321249878    0.5435985591         -0.0076
C313       C    0.3090815954    0.1377767628    0.6867005384         -0.0076
Cu314     Cu    0.3221750802    0.1331244024    0.5719585311             1.0
N315       N    0.3207588608    0.1596217757    0.5895458579         -0.0076
N316       N    0.2895017143    0.1290628709    0.5742951172         -0.0076
N317       N    0.3342567952    0.1338113213    0.5402110210         -0.0076
N318       N    0.3410134727    0.1088566033    0.5804698933         -0.0076
N319       N    0.4466672848    0.1502737313    0.5937825401         -0.0076
N320       N    0.3440366002    0.0372787996    0.5350595438         -0.0076
N321       N    0.2734431244    0.2358891640    0.5459773736         -0.0076
N322       N    0.3230111642    0.1472506446    0.7016689936         -0.0076
C323       C    0.3354874481    0.1065141742    0.6239995449         -0.0076
C324       C    0.3505521743    0.1116381625    0.6429348617         -0.0076
C325       C    0.3420496687    0.1215676141    0.6635659284         -0.0076
C326       C    0.3182661013    0.1262966337    0.6656664552         -0.0076
C327       C    0.3031244491    0.1205124617    0.6470279182         -0.0076
C328       C    0.3117101121    0.1107191894    0.6263186989         -0.0076
C329       C    0.4101287545    0.1677075852    0.5852483389         -0.0076
C330       C    0.3989286623    0.1864897549    0.5776408513         -0.0076
C331       C    0.3748492035    0.1885455244    0.5798217863         -0.0076
C332       C    0.3615716789    0.1718030861    0.5895797348         -0.0076
C333       C    0.3726094998    0.1526794390    0.5961196004         -0.0076
C334       C    0.3966851894    0.1505679574    0.5939671057         -0.0076
H335       H    0.3414471439    0.2061167373    0.6116488739         -0.0076
H336       H    0.3000311675    0.2109702488    0.6211952375         -0.0076
H337       H    0.2591058308    0.1970269066    0.6196404604         -0.0076
H338       H    0.2315435041    0.1688951118    0.6072783989         -0.0076
H339       H    0.2242372658    0.1332542566    0.5871401752         -0.0076
H340       H    0.2399264747    0.1016925105    0.5655136171         -0.0076
H341       H    0.4453292795    0.1808288223    0.5793275039         -0.0076
H342       H    0.2866454415    0.1108902680    0.5197641433         -0.0076
H343       H    0.3106568718    0.0834313784    0.5003584680         -0.0076
H344       H    0.3129010998    0.0478500837    0.5667764061         -0.0076
H345       H    0.2885502306    0.0751968374    0.5858476709         -0.0076
H346       H    0.3369829799    0.0532021745    0.5032752903         -0.0076
H347       H    0.3433855521    0.1557922425    0.4859705314         -0.0076
H348       H    0.3667715057    0.1228353963    0.4814016583         -0.0076
H349       H    0.3846598854    0.0901792696    0.5003956688         -0.0076
H350       H    0.3909952592    0.0680739593    0.5363334395         -0.0076
H351       H    0.3831530307    0.0610715406    0.5799752278         -0.0076
H352       H    0.3638642579    0.0718608096    0.6175764973         -0.0076
H353       H    0.3079892592    0.2450674430    0.5449771368         -0.0076
H354       H    0.2904333134    0.1396041450    0.6884088223         -0.0076
H355       H    0.3690361543    0.1086562899    0.6413753050         -0.0076
H356       H    0.3541099466    0.1258002856    0.6776960500         -0.0076
H357       H    0.2847169408    0.1239529869    0.6482791829         -0.0076
H358       H    0.2998143129    0.1063991465    0.6121588686         -0.0076
H359       H    0.4088992402    0.1998599881    0.5707382456         -0.0076
H360       H    0.3666459922    0.2034158114    0.5744464223         -0.0076
H361       H    0.3627807179    0.1398715652    0.6041810378         -0.0076
H362       H    0.4048013223    0.1358604318    0.5999878481         -0.0076
C363       C    0.3222379247    0.1694726422    0.5269466317         -0.0076
C364       C    0.2990586445    0.1718073086    0.5339558209         -0.0076
C365       C    0.2902239877    0.1921522707    0.5394883754         -0.0076
C366       C    0.3045081584    0.2104855079    0.5384519865         -0.0076
C367       C    0.3279343265    0.2085056560    0.5319147281         -0.0076
C368       C    0.3371578557    0.1886506396    0.5259000515         -0.0076
H369       H    0.2877836452    0.1579450704    0.5350053458         -0.0076
H370       H    0.2721760394    0.1935392171    0.5447460094         -0.0076
H371       H    0.3391055805    0.2224714088    0.5312143646         -0.0076
H372       H    0.3552910359    0.1873336102    0.5209484458         -0.0076
C373       C    0.0927337557    0.3223313346    0.0950257140         -0.0076
C374       C    0.1002836837    0.3035321339    0.1066365921         -0.0076
C375       C    0.1238353634    0.3008004791    0.1121775388         -0.0076
C376       C    0.1399522291    0.3166561849    0.1059184218         -0.0076
C377       C    0.1638451981    0.3144092959    0.1106175819         -0.0076
C378       C    0.1795908982    0.3304260082    0.1035168227         -0.0076
C379       C    0.1716565999    0.3487634216    0.0914042409         -0.0076
C380       C    0.1867464009    0.3650845528    0.0836810297         -0.0076
C381       C    0.1779181482    0.3829713390    0.0713524897         -0.0076
C382       C    0.1540179956    0.3842196137    0.0666013758         -0.0076
C383       C    0.1478285630    0.3509431478    0.0866408042         -0.0076
C384       C    0.1318577261    0.3351371419    0.0942367831         -0.0076
C385       C    0.9936987473    0.3303358374    0.0855255435         -0.0076
C386       C    0.1437324197    0.4024682820    0.0540421134         -0.0076
C387       C    0.1378143608    0.4005226242    0.0298043965         -0.0076
C388       C    0.1241502488    0.4161698400    0.0188052219         -0.0076
C389       C    0.1159015491    0.4337244485    0.0320561298         -0.0076
C390       C    0.1228096991    0.4361270788    0.0560934792         -0.0076
C391       C    0.1366960333    0.4205706702    0.0669975499         -0.0076
C392       C    0.0977779172    0.4474633792    0.0214974378         -0.0076
C393       C    0.0968737001    0.3488788776    0.0222576491         -0.0076
C394       C    0.0852335496    0.3529140519    0.0005726801         -0.0076
C395       C    0.0717638408    0.3715205709    0.9980945610         -0.0076
C396       C    0.0690323907    0.3854751200    0.0176146616         -0.0076
C397       C    0.0541078938    0.4032751999    0.0167281096         -0.0076
C398       C    0.0505181008    0.4159043083    0.0372356203         -0.0076
C399       C    0.0620451750    0.4110614671    0.0587842272         -0.0076
C400       C    0.0582200366    0.4227709417    0.0798617637         -0.0076
C401       C    0.0692112011    0.4166724451    0.1012261343         -0.0076
C402       C    0.0844771661    0.3990741795    0.1013594134         -0.0076
C403       C    0.0775240607    0.3936614824    0.0595719406         -0.0076
C404       C    0.0810270072    0.3808959866    0.0389357325         -0.0076
C405       C    0.1339312601    0.2651548984    0.0435973191         -0.0076
C406       C    0.1203779462    0.3595010708    0.1867010497         -0.0076
Cu407     Cu    0.1072868235    0.3641557877    0.0719588814             1.0
N408       N    0.1087017825    0.3376580707    0.0895456688         -0.0076
N409       N    0.1399602860    0.3682163099    0.0742962049         -0.0076
N410       N    0.0952056933    0.3634697718    0.0402111161         -0.0076
N411       N    0.0884491133    0.3884239997    0.0804703885         -0.0076
N412       N    0.9827936030    0.3470097776    0.0937800447         -0.0076
N413       N    0.0854293504    0.4600026720    0.0350615121         -0.0076
N414       N    0.1560156969    0.2613900262    0.0459764926         -0.0076
N415       N    0.1064477604    0.3500273454    0.2016690246         -0.0076
C416       C    0.0939743849    0.3907655182    0.1240002002         -0.0076
C417       C    0.0789091171    0.3856416520    0.1429351074         -0.0076
C418       C    0.0874108812    0.3757115943    0.1635661306         -0.0076
C419       C    0.1111942436    0.3709818331    0.1656670295         -0.0076
C420       C    0.1263364546    0.3767658757    0.1470289179         -0.0076
C421       C    0.1177515300    0.3865597579    0.1263197375         -0.0076
C422       C    0.0193316895    0.3295749862    0.0852461974         -0.0076
C423       C    0.0305312732    0.3107926148    0.0776385305         -0.0076
C424       C    0.0546106185    0.3087360935    0.0798199008         -0.0076
C425       C    0.0678885394    0.3254779706    0.0895784722         -0.0076
C426       C    0.0568512594    0.3446018329    0.0961185278         -0.0076
C427       C    0.0327756846    0.3467140657    0.0939655990         -0.0076
H428       H    0.0880114556    0.2911633438    0.1116472769         -0.0076
H429       H    0.1294270799    0.2863084399    0.1211943610         -0.0076
H430       H    0.1703529322    0.3002505948    0.1196406973         -0.0076
H431       H    0.1979164760    0.3283817839    0.1072797872         -0.0076
H432       H    0.2052243422    0.3640227678    0.0871424724         -0.0076
H433       H    0.1895366477    0.3955853502    0.0655162781         -0.0076
H434       H    0.9841308209    0.3164548949    0.0793243806         -0.0076
H435       H    0.1428182376    0.3863897635    0.0197656772         -0.0076
H436       H    0.1188081360    0.4138496982    0.0003601121         -0.0076
H437       H    0.1165638743    0.4494299202    0.0667787678         -0.0076
H438       H    0.1409134251    0.4220821169    0.0858499315         -0.0076
H439       H    0.0924830252    0.4440796331    0.0032770580         -0.0076
H440       H    0.0860772106    0.3414900519    0.9859699739         -0.0076
H441       H    0.0626924928    0.3744476702    0.9814013413         -0.0076
H442       H    0.0448048867    0.4071040017    0.0003956952         -0.0076
H443       H    0.0384695940    0.4292088835    0.0363338133         -0.0076
H444       H    0.0463112297    0.4362103209    0.0799759077         -0.0076
H445       H    0.0655989057    0.4254198348    0.1175773301         -0.0076
H446       H    0.1214692615    0.2522127893    0.0449753715         -0.0076
H447       H    0.1390261318    0.3576731060    0.1884096656         -0.0076
H448       H    0.0604252710    0.3886240997    0.1413752465         -0.0076
H449       H    0.0753501850    0.3714790382    0.1776959214         -0.0076
H450       H    0.1447438190    0.3733247829    0.1482804753         -0.0076
H451       H    0.1296477511    0.3908796907    0.1121602366         -0.0076
H452       H    0.0205603618    0.2974227958    0.0707354398         -0.0076
H453       H    0.0628134148    0.2938656554    0.0744443815         -0.0076
H454       H    0.0666803330    0.3574092768    0.1041804352         -0.0076
H455       H    0.0246599486    0.3614217288    0.0999864950         -0.0076
C456       C    0.1072235756    0.3278083220    0.0269462021         -0.0076
C457       C    0.1304026401    0.3254728477    0.0339558028         -0.0076
C458       C    0.1392364819    0.3051275286    0.0394880973         -0.0076
C459       C    0.1249516923    0.2867947329    0.0384510313         -0.0076
C460       C    0.1015257186    0.2887753920    0.0319133490         -0.0076
C461       C    0.0923029965    0.3086307851    0.0258989140         -0.0076
H462       H    0.1416781022    0.3393347334    0.0350058491         -0.0076
H463       H    0.1572842811    0.3037399566    0.0447460608         -0.0076
H464       H    0.0903539914    0.2748099826    0.0312124639         -0.0076
H465       H    0.0741699572    0.3099484374    0.0209469756         -0.0076
C466       C    0.2787314445    0.1377903811    0.9628298893         -0.0076
C467       C    0.2702983626    0.1367452444    0.9865051565         -0.0076
C468       C    0.2469106967    0.1318600920    0.9907926887         -0.0076
C469       C    0.2318146875    0.1282586845    0.9715212204         -0.0076
C470       C    0.2080828068    0.1237883148    0.9749226254         -0.0076
C471       C    0.1933260150    0.1208048790    0.9551152173         -0.0076
C472       C    0.2020788574    0.1224884928    0.9316786281         -0.0076
C473       C    0.1879676577    0.1199051352    0.9113078109         -0.0076
C474       C    0.1975633324    0.1220348537    0.8882536906         -0.0076
C475       C    0.2212193311    0.1270083797    0.8858153153         -0.0076
C476       C    0.2257373617    0.1270357624    0.9283108781         -0.0076
C477       C    0.2407608146    0.1295477961    0.9481505190         -0.0076
C478       C    0.3775073910    0.1490478130    0.9546779315         -0.0076
C479       C    0.2322834757    0.1292627059    0.8623575882         -0.0076
C480       C    0.2367717299    0.1497425081    0.8532271914         -0.0076
C481       C    0.2510713132    0.1522221029    0.8332110492         -0.0076
C482       C    0.2613807464    0.1342676706    0.8223901535         -0.0076
C483       C    0.2559329901    0.1136602659    0.8309335821         -0.0076
C484       C    0.2414145216    0.1111970439    0.8508062227         -0.0076
C485       C    0.2799903432    0.1376174109    0.8046541042         -0.0076
C486       C    0.2729967561    0.1826550714    0.9024804297         -0.0076
C487       C    0.2837959688    0.1987858657    0.8888716200         -0.0076
C488       C    0.2985790262    0.1931558451    0.8698964501         -0.0076
C489       C    0.3034274960    0.1715007508    0.8653239291         -0.0076
C490       C    0.3196763507    0.1650965602    0.8479495842         -0.0076
C491       C    0.3253237796    0.1433392468    0.8451838383         -0.0076
C492       C    0.3145651528    0.1276979564    0.8595320742         -0.0076
C493       C    0.3204023024    0.1059334417    0.8579510236         -0.0076
C494       C    0.3100668120    0.0910583681    0.8734770049         -0.0076
C495       C    0.2934553545    0.0979382412    0.8902861431         -0.0076
C496       C    0.2977913305    0.1339534907    0.8764414463         -0.0076
C497       C    0.2922127808    0.1558819893    0.8792856409         -0.0076
C498       C    0.2304559256    0.2017183118    0.9936113640         -0.0076
C499       C    0.2589161300    0.0461530201    0.9676790900         -0.0076
Cu500     Cu    0.2664166471    0.1355720145    0.9101204280             1.0
N501       N    0.2637812164    0.1338296432    0.9444508460         -0.0076
N502       N    0.2343268660    0.1293895141    0.9058151165         -0.0076
N503       N    0.2767567347    0.1618625558    0.8965033756         -0.0076
N504       N    0.2875669623    0.1190532293    0.8909019711         -0.0076
N505       N    0.3901339309    0.1356449766    0.9425096374         -0.0076
N506       N    0.2939950561    0.1220427485    0.7991094663         -0.0076
N507       N    0.2082833619    0.1999173448    0.9975075717         -0.0076
N508       N    0.2727967614    0.0397644300    0.9846121147         -0.0076
C509       C    0.2844954626    0.0831896050    0.9086549668         -0.0076
C510       C    0.3000608102    0.0717440562    0.9231869877         -0.0076
C511       C    0.2918582134    0.0594064894    0.9422631008         -0.0076
C512       C    0.2679018436    0.0581432907    0.9469112810         -0.0076
C513       C    0.2523282873    0.0690435761    0.9318619522         -0.0076
C514       C    0.2605987131    0.0815120531    0.9128874928         -0.0076
C515       C    0.3519059432    0.1476898677    0.9542152213         -0.0076
C516       C    0.3388498459    0.1615344821    0.9687565374         -0.0076
C517       C    0.3148179931    0.1589497873    0.9707876953         -0.0076
C518       C    0.3034454625    0.1425071398    0.9582306450         -0.0076
C519       C    0.3163124208    0.1293352938    0.9428470585         -0.0076
C520       C    0.3403464670    0.1318714991    0.9407739442         -0.0076
H521       H    0.2817820867    0.1394309478    0.0015855423         -0.0076
H522       H    0.2406406228    0.1310193800    0.0090841368         -0.0076
H523       H    0.2009276913    0.1227195756    0.9928488101         -0.0076
H524       H    0.1751063458    0.1173991500    0.9581152400         -0.0076
H525       H    0.1696597878    0.1162718508    0.9131897984         -0.0076
H526       H    0.1867078147    0.1199367490    0.8725736031         -0.0076
H527       H    0.3855988971    0.1610802101    0.9659095598         -0.0076
H528       H    0.2301343747    0.1638237000    0.8623016229         -0.0076
H529       H    0.2552542753    0.1682585822    0.8271278871         -0.0076
H530       H    0.2637736167    0.0995458185    0.8230335595         -0.0076
H531       H    0.2383074834    0.0952975417    0.8579261583         -0.0076
H532       H    0.2840522686    0.1539645591    0.7997249383         -0.0076
H533       H    0.2812843349    0.2155312834    0.8933163156         -0.0076
H534       H    0.3069881323    0.2056645972    0.8596020993         -0.0076
H535       H    0.3284072940    0.1769211102    0.8369421266         -0.0076
H536       H    0.3383461187    0.1388085394    0.8321237305         -0.0076
H537       H    0.3333487057    0.1005278461    0.8452255829         -0.0076
H538       H    0.3152101883    0.0743782976    0.8726102374         -0.0076
H539       H    0.2418953717    0.2075511492    0.0075722591         -0.0076
H540       H    0.2402867823    0.0442448692    0.9694936471         -0.0076
H541       H    0.3186270699    0.0729887469    0.9202938484         -0.0076
H542       H    0.3042557532    0.0511161620    0.9535461554         -0.0076
H543       H    0.2337854012    0.0682600433    0.9350678345         -0.0076
H544       H    0.2483704620    0.0897978315    0.9015111838         -0.0076
H545       H    0.3473476267    0.1739151092    0.9791727011         -0.0076
H546       H    0.3051759376    0.1694496077    0.9826305316         -0.0076
H547       H    0.3079703220    0.1163104554    0.9335331401         -0.0076
H548       H    0.3499219713    0.1209308624    0.9293892828         -0.0076
C549       C    0.2612360733    0.1879139360    0.9250537294         -0.0076
C550       C    0.2383269984    0.1817142616    0.9296504035         -0.0076
C551       C    0.2281778368    0.1860859472    0.9519645638         -0.0076
C552       C    0.2408742586    0.1964544837    0.9702039879         -0.0076
C553       C    0.2640249678    0.2024641979    0.9661885199         -0.0076
C554       C    0.2744971244    0.1987288913    0.9441501623         -0.0076
H555       H    0.2282682195    0.1736287165    0.9159630548         -0.0076
H556       H    0.2103646356    0.1812173559    0.9550245721         -0.0076
H557       H    0.2739901001    0.2103141342    0.9801366328         -0.0076
H558       H    0.2924053466    0.2033946250    0.9413055838         -0.0076
C559       C    0.2787416042    0.8594831427    0.0577954282         -0.0076
C560       C    0.2703079137    0.8605283339    0.0341203993         -0.0076
C561       C    0.2469200866    0.8654132895    0.0298335423         -0.0076
C562       C    0.2318245245    0.8690144451    0.0491054495         -0.0076
C563       C    0.2080925094    0.8734846097    0.0457047261         -0.0076
C564       C    0.1933361850    0.8764677938    0.0655125595         -0.0076
C565       C    0.2020896368    0.8747841299    0.0889488970         -0.0076
C566       C    0.1879789230    0.8773672386    0.1093201189         -0.0076
C567       C    0.1975752025    0.8752374802    0.1323739613         -0.0076
C568       C    0.2212313166    0.8702641639    0.1348116535         -0.0076
C569       C    0.2257482755    0.8702370648    0.0923159669         -0.0076
C570       C    0.2407712552    0.8677252856    0.0724758967         -0.0076
C571       C    0.3775178785    0.8482265983    0.0659446012         -0.0076
C572       C    0.2322960775    0.8680098094    0.1582690617         -0.0076
C573       C    0.2367847844    0.8475299979    0.1673991904         -0.0076
C574       C    0.2510848996    0.8450504248    0.1874149234         -0.0076
C575       C    0.2613944107    0.8630048932    0.1982356640         -0.0076
C576       C    0.2559462152    0.8836122949    0.1896925307         -0.0076
C577       C    0.2414272186    0.8860754922    0.1698203052         -0.0076
C578       C    0.2800044913    0.8596552283    0.2159711800         -0.0076
C579       C    0.2730089253    0.8146180562    0.1181447267         -0.0076
C580       C    0.2838086565    0.7984872868    0.1317531263         -0.0076
C581       C    0.2985921315    0.8041173396    0.1507279313         -0.0076
C582       C    0.3034404815    0.8257724538    0.1553004731         -0.0076
C583       C    0.3196897050    0.8321766996    0.1726744184         -0.0076
C584       C    0.3253369674    0.8539340506    0.1754401639         -0.0076
C585       C    0.3145778089    0.8695753206    0.1610923335         -0.0076
C586       C    0.3204147620    0.8913398816    0.1626733786         -0.0076
C587       C    0.3100787184    0.9062149455    0.1471477859         -0.0076
C588       C    0.2934669115    0.8993350106    0.1303390537         -0.0076
C589       C    0.2978036279    0.8633197237    0.1441833764         -0.0076
C590       C    0.2922252445    0.8413911885    0.1413391791         -0.0076
C591       C    0.2304660029    0.7955549301    0.0270148222         -0.0076
C592       C    0.2589251724    0.9511203439    0.0529474200         -0.0076
Cu593     Cu    0.2664281124    0.8617010942    0.1105052424             1.0
N594       N    0.2637917967    0.8634436351    0.0761749090         -0.0076
N595       N    0.2343383728    0.8678832668    0.1148114765         -0.0076
N596       N    0.2767688289    0.8354105734    0.1241218252         -0.0076
N597       N    0.2875787331    0.8782199703    0.1297232372         -0.0076
N598       N    0.3901445799    0.8616294851    0.0781126446         -0.0076
N599       N    0.2940091750    0.8752299916    0.2215155448         -0.0076
N600       N    0.2082933213    0.7973557096    0.0231192345         -0.0076
N601       N    0.2728053073    0.9575091612    0.0360140604         -0.0076
C602       C    0.2845063961    0.9140836662    0.1119705800         -0.0076
C603       C    0.3000712529    0.9255294445    0.0974382140         -0.0076
C604       C    0.2918680410    0.9378670419    0.0783624130         -0.0076
C605       C    0.2679115402    0.9391300405    0.0737148978         -0.0076
C606       C    0.2523384819    0.9282295226    0.0887645758         -0.0076
C607       C    0.2606095217    0.9157610162    0.1077387202         -0.0076
C608       C    0.3519164277    0.8495842989    0.0664080222         -0.0076
C609       C    0.3388601139    0.8357396435    0.0518669654         -0.0076
C610       C    0.3148281818    0.8383241227    0.0498364839         -0.0076
C611       C    0.3034557894    0.8547665916    0.0623939623         -0.0076
C612       C    0.3163229928    0.8679384720    0.0777772898         -0.0076
C613       C    0.3403571188    0.8654024822    0.0798497279         -0.0076
H614       H    0.2817912865    0.8578428245    0.0190396801         -0.0076
H615       H    0.2406495421    0.8662540459    0.0115422718         -0.0076
H616       H    0.2009369301    0.8745533828    0.0277787449         -0.0076
H617       H    0.1751164031    0.8798733675    0.0625130598         -0.0076
H618       H    0.1696709662    0.8810003606    0.1074386585         -0.0076
H619       H    0.1867200575    0.8773353934    0.1480543610         -0.0076
H620       H    0.3856092319    0.8361943414    0.0547126660         -0.0076
H621       H    0.2301473531    0.8334487947    0.1583248408         -0.0076
H622       H    0.2552681892    0.8290139505    0.1934978572         -0.0076
H623       H    0.2637868879    0.8977267716    0.1975924388         -0.0076
H624       H    0.2383198282    0.9019750054    0.1627005674         -0.0076
H625       H    0.2840667186    0.8433080906    0.2209001188         -0.0076
H626       H    0.2812970923    0.7817418706    0.1273083807         -0.0076
H627       H    0.3070016330    0.7916086086    0.1610219631         -0.0076
H628       H    0.3284210543    0.8203521697    0.1836815530         -0.0076
H629       H    0.3383595868    0.8584648071    0.1884999472         -0.0076
H630       H    0.3333614277    0.8967455275    0.1753985031         -0.0076
H631       H    0.3152219355    0.9228950597    0.1480145308         -0.0076
H632       H    0.2419051601    0.7897222800    0.0130535725         -0.0076
H633       H    0.2402957583    0.9530283289    0.0511333865         -0.0076
H634       H    0.3186375991    0.9242849130    0.1003308361         -0.0076
H635       H    0.3042652061    0.9461575504    0.0670790777         -0.0076
H636       H    0.2337955064    0.9290128983    0.0855592068         -0.0076
H637       H    0.2483816476    0.9074750578    0.1191153054         -0.0076
H638       H    0.3473577663    0.8233591558    0.0414504813         -0.0076
H639       H    0.3051859415    0.8278242783    0.0379938373         -0.0076
H640       H    0.3079809875    0.8809631787    0.0870915290         -0.0076
H641       H    0.3499327915    0.8763431448    0.0912342047         -0.0076
C642       C    0.2612477302    0.8093592083    0.0955717118         -0.0076
C643       C    0.2383384720    0.8155586922    0.0909757090         -0.0076
C644       C    0.2281887949    0.8111870371    0.0686617957         -0.0076
C645       C    0.2408848692    0.8008187240    0.0504219504         -0.0076
C646       C    0.2640357450    0.7948092060    0.0544367418         -0.0076
C647       C    0.2745084170    0.7985444866    0.0764748391         -0.0076
H648       H    0.2282799506    0.8236440647    0.1046633905         -0.0076
H649       H    0.2103754638    0.8160554774    0.0656023096         -0.0076
H650       H    0.2740006106    0.7869594428    0.0404883003         -0.0076
H651       H    0.2924167616    0.7938789061    0.0793188941         -0.0076
C652       C    0.0927301260    0.6749458226    0.9256023841         -0.0076
C653       C    0.1002805611    0.6937447398    0.9139912758         -0.0076
C654       C    0.1238323959    0.6964760271    0.9084507895         -0.0076
C655       C    0.1399489087    0.6806202392    0.9147105953         -0.0076
C656       C    0.1638420083    0.6828667708    0.9100119134         -0.0076
C657       C    0.1795873353    0.6668499950    0.9171133566         -0.0076
C658       C    0.1716525258    0.6485128781    0.9292261505         -0.0076
C659       C    0.1867419365    0.6321917013    0.9369500378         -0.0076
C660       C    0.1779131743    0.6143052258    0.9492787607         -0.0076
C661       C    0.1540129040    0.6130573093    0.9540293752         -0.0076
C662       C    0.1478243580    0.6463335095    0.9339891091         -0.0076
C663       C    0.1318539015    0.6621395733    0.9263924456         -0.0076
C664       C    0.9936948055    0.6669426328    0.9351005449         -0.0076
C665       C    0.1437268086    0.5948089724    0.9665887960         -0.0076
C666       C    0.1378082646    0.5967551076    0.9908263417         -0.0076
C667       C    0.1241437024    0.5811082362    0.0018255456         -0.0076
C668       C    0.1158950384    0.5635535004    0.9885748264         -0.0076
C669       C    0.1228036630    0.5611503846    0.9645376797         -0.0076
C670       C    0.1366904442    0.5767064477    0.9536335864         -0.0076
C671       C    0.0977709922    0.5498149586    0.9991334094         -0.0076
C672       C    0.0968681631    0.6483994579    0.9983710997         -0.0076
C673       C    0.0852274981    0.6443647846    0.0200558978         -0.0076
C674       C    0.0717574781    0.6257584641    0.0225341129         -0.0076
C675       C    0.0690262463    0.6118036179    0.0030142464         -0.0076
C676       C    0.0541014830    0.5940037266    0.0039008454         -0.0076
C677       C    0.0505119476    0.5813743143    0.9833935220         -0.0076
C678       C    0.0620395446    0.5862166582    0.9618450665         -0.0076
C679       C    0.0582146887    0.5745068729    0.9407676928         -0.0076
C680       C    0.0692063897    0.5806048815    0.9194034354         -0.0076
C681       C    0.0844726023    0.5982029671    0.9192701211         -0.0076
C682       C    0.0775186891    0.6036164495    0.9610573268         -0.0076
C683       C    0.0810213772    0.6163822523    0.9816933428         -0.0076
C684       C    0.1339273393    0.7321226460    0.9770304797         -0.0076
C685       C    0.1203757367    0.6377742196    0.8339284402         -0.0076
Cu686     Cu    0.1072821243    0.6331215889    0.9486704186             1.0
N687       N    0.1086978237    0.6596189930    0.9310831037         -0.0076
N688       N    0.1399555797    0.6290606470    0.9463338994         -0.0076
N689       N    0.0952003327    0.6338082805    0.9804179037         -0.0076
N690       N    0.0884442563    0.6088534528    0.9401590089         -0.0076
N691       N    0.9827896036    0.6502686803    0.9268461554         -0.0076
N692       N    0.0854225376    0.5372755810    0.9855693279         -0.0076
N693       N    0.1560118788    0.7358872211    0.9746517125         -0.0076
N694       N    0.1064459991    0.6472478548    0.8189599592         -0.0076
C695       C    0.0939704152    0.6065111363    0.8966293680         -0.0076
C696       C    0.0789056190    0.6116348587    0.8776940215         -0.0076
C697       C    0.0874079572    0.6215644698    0.8570629759         -0.0076
C698       C    0.1111914298    0.6262939187    0.8549625004         -0.0076
C699       C    0.1263331665    0.6205100140    0.8736010671         -0.0076
C700       C    0.1177476678    0.6107165808    0.8943102651         -0.0076
C701       C    0.0193277524    0.6677031903    0.9353804388         -0.0076
C702       C    0.0305274367    0.6864855596    0.9429879561         -0.0076
C703       C    0.0546068567    0.6885417638    0.9408070721         -0.0076
C704       C    0.0678847508    0.6717995677    0.9310491457         -0.0076
C705       C    0.0568473429    0.6526757236    0.9245092505         -0.0076
C706       C    0.0327716933    0.6505638074    0.9266616943         -0.0076
H707       H    0.0880086110    0.7061135883    0.9089800602         -0.0076
H708       H    0.1294245046    0.7109678492    0.8994337847         -0.0076
H709       H    0.1703501300    0.6970252441    0.9009886426         -0.0076
H710       H    0.1979130211    0.6688939425    0.9133507521         -0.0076
H711       H    0.2052199658    0.6332532129    0.9334889790         -0.0076
H712       H    0.1895313749    0.6016911776    0.9551154937         -0.0076
H713       H    0.9841269413    0.6808237911    0.9413012047         -0.0076
H714       H    0.1428121259    0.6108880793    0.0008648731         -0.0076
H715       H    0.1188012321    0.5834287510    0.0202704890         -0.0076
H716       H    0.1165578789    0.5478474358    0.9538525342         -0.0076
H717       H    0.1409082133    0.5751946342    0.9347813294         -0.0076
H718       H    0.0924757623    0.5531990735    0.0173536014         -0.0076
H719       H    0.0860710095    0.6557890209    0.0346583816         -0.0076
H720       H    0.0626857365    0.6228317518    0.0392271948         -0.0076
H721       H    0.0447980774    0.5901753083    0.0202331359         -0.0076
H722       H    0.0384632366    0.5680698947    0.9842953445         -0.0076
H723       H    0.0463056972    0.5610676304    0.9406535703         -0.0076
H724       H    0.0655943180    0.5718572583    0.9030523446         -0.0076
H725       H    0.1214655499    0.7450648770    0.9756518803         -0.0076
H726       H    0.1390239839    0.6396019385    0.8322201959         -0.0076
H727       H    0.0604216983    0.6086526524    0.8792535386         -0.0076
H728       H    0.0753476185    0.6257969281    0.8429328305         -0.0076
H729       H    0.1447406052    0.6239508714    0.8723498420         -0.0076
H730       H    0.1296435296    0.6063967481    0.9084701187         -0.0076
H731       H    0.0205565655    0.6998556110    0.9498905455         -0.0076
H732       H    0.0628097463    0.7034121970    0.9461824582         -0.0076
H733       H    0.0666764086    0.6398680294    0.9164478294         -0.0076
H734       H    0.0246558799    0.6358561373    0.9206409299         -0.0076
C735       C    0.1072184310    0.6694698140    0.9936823302         -0.0076
C736       C    0.1303976761    0.6718049004    0.9866731901         -0.0076
C737       C    0.1392319179    0.6921500234    0.9811406610         -0.0076
C738       C    0.1249473616    0.7104830028    0.9821770262         -0.0076
C739       C    0.1015212221    0.7085027266    0.9887142350         -0.0076
C740       C    0.0922980966    0.6886475423    0.9947288857         -0.0076
H741       H    0.1416729675    0.6579428657    0.9856236841         -0.0076
H742       H    0.1572798475    0.6935372967    0.9758830651         -0.0076
H743       H    0.0903496745    0.7224682779    0.9894145799         -0.0076
H744       H    0.0741649343    0.6873301845    0.9996804530         -0.0076
C745       C    0.6507267442    0.8594808923    0.4628313328         -0.0076
C746       C    0.6591599578    0.8605262658    0.4865065326         -0.0076
C747       C    0.6825475450    0.8654118675    0.4907938692         -0.0076
C748       C    0.6976433497    0.8690134906    0.4715222728         -0.0076
C749       C    0.7213751550    0.8734843130    0.4749234816         -0.0076
C750       C    0.7361317523    0.8764679563    0.4551159505         -0.0076
C751       C    0.7273787937    0.8747841005    0.4316794339         -0.0076
C752       C    0.7414898040    0.8773676516    0.4113085003         -0.0076
C753       C    0.7318940253    0.8752376768    0.3882544607         -0.0076
C754       C    0.7082381193    0.8702637027    0.3858162833         -0.0076
C755       C    0.7037203667    0.8702363796    0.4283118800         -0.0076
C756       C    0.6886970982    0.8677241337    0.4481516438         -0.0076
C757       C    0.5519509903    0.8482215962    0.4546801607         -0.0076
C758       C    0.6971738708    0.8680090916    0.3623586484         -0.0076
C759       C    0.6926860042    0.8475291750    0.3532283725         -0.0076
C760       C    0.6783863444    0.8450492467    0.3332123476         -0.0076
C761       C    0.6680764485    0.8630034507    0.3223914524         -0.0076
C762       C    0.6735238105    0.8836109856    0.3309347525         -0.0076
C763       C    0.6880423550    0.8860745447    0.3508072741         -0.0076
C764       C    0.6494668090    0.8596533045    0.3046555564         -0.0076
C765       C    0.6564620184    0.8146161047    0.4024820217         -0.0076
C766       C    0.6456630691    0.7984850636    0.3888733614         -0.0076
C767       C    0.6308797648    0.8041147452    0.3698982779         -0.0076
C768       C    0.6260307923    0.8257697338    0.3653257008         -0.0076
C769       C    0.6097816843    0.8321735636    0.3479514499         -0.0076
C770       C    0.6041337622    0.8539307626    0.3451856535         -0.0076
C771       C    0.6148921411    0.8695723015    0.3595337423         -0.0076
C772       C    0.6090545059    0.8913367024    0.3579526425         -0.0076
C773       C    0.6193897728    0.9062120206    0.3734784831         -0.0076
C774       C    0.6360014903    0.8993325132    0.3902875266         -0.0076
C775       C    0.6316662104    0.8633171363    0.3764430158         -0.0076
C776       C    0.6372452576    0.8413887511    0.3792872622         -0.0076
C777       C    0.6990038600    0.7955539632    0.4936127196         -0.0076
C778       C    0.6705400892    0.9511186381    0.4676799947         -0.0076
Cu779     Cu    0.6630411490    0.8616993097    0.4101217701             1.0
N780       N    0.6656767658    0.8634418460    0.4444521609         -0.0076
N781       N    0.6951307670    0.8678823922    0.4058161926         -0.0076
N782       N    0.6527015467    0.8354085301    0.3965049070         -0.0076
N783       N    0.6418903476    0.8782176367    0.3909034007         -0.0076
N784       N    0.5393240783    0.8616241566    0.4425119038         -0.0076
N785       N    0.6354617198    0.8752276877    0.2991109567         -0.0076
N786       N    0.7211764099    0.7973553556    0.4975087540         -0.0076
N787       N    0.6566594289    0.9575070273    0.4846130958         -0.0076
C788       C    0.6449611801    0.9140813781    0.4086562205         -0.0076
C789       C    0.6293956774    0.9255266865    0.4231883088         -0.0076
C790       C    0.6375981292    0.9378644704    0.4422643081         -0.0076
C791       C    0.6615545018    0.9391281302    0.4469123040         -0.0076
C792       C    0.6771281979    0.9282280835    0.4318629053         -0.0076
C793       C    0.6688579205    0.9157593886    0.4128885609         -0.0076
C794       C    0.5775524054    0.8495800159    0.4542172535         -0.0076
C795       C    0.5906089000    0.8357356934    0.4687585311         -0.0076
C796       C    0.6146407096    0.8383208420    0.4707894986         -0.0076
C797       C    0.6260127991    0.8547636585    0.4582322931         -0.0076
C798       C    0.6131454528    0.8679352133    0.4428487466         -0.0076
C799       C    0.5891114484    0.8653985541    0.4407758226         -0.0076
H800       H    0.6476763908    0.8578403998    0.5015870156         -0.0076
H801       H    0.6888177200    0.8662527579    0.5090852670         -0.0076
H802       H    0.7285303643    0.8745532458    0.4928496083         -0.0076
H803       H    0.7543513668    0.8798740341    0.4581158226         -0.0076
H804       H    0.7597976069    0.8810012828    0.4131903356         -0.0076
H805       H    0.7427493948    0.8773359304    0.3725742832         -0.0076
H806       H    0.5438598204    0.8361890866    0.4659119007         -0.0076
H807       H    0.6993237261    0.8334481372    0.3623028145         -0.0076
H808       H    0.6742036928    0.8290126691    0.3271292852         -0.0076
H809       H    0.6656828241    0.8977252605    0.3230347282         -0.0076
H810       H    0.6911490925    0.9019741287    0.3579271187         -0.0076
H811       H    0.6454052085    0.8433060641    0.2997264905         -0.0076
H812       H    0.6481750977    0.7817397076    0.3933181097         -0.0076
H813       H    0.6224708647    0.7916058019    0.3596040432         -0.0076
H814       H    0.6010509273    0.8203488141    0.3369441080         -0.0076
H815       H    0.5911112389    0.8584611838    0.3321256235         -0.0076
H816       H    0.5961079014    0.8967420143    0.3452272754         -0.0076
H817       H    0.6142460266    0.9228919925    0.3726116829         -0.0076
H818       H    0.6875646325    0.7897209603    0.5075737250         -0.0076
H819       H    0.6891694071    0.9530271415    0.4694944045         -0.0076
H820       H    0.6108294259    0.9242816409    0.4202953135         -0.0076
H821       H    0.6252004821    0.9461546053    0.4535474199         -0.0076
H822       H    0.6956710878    0.9290119719    0.4350686458         -0.0076
H823       H    0.6810862783    0.9074737992    0.4015121959         -0.0076
H824       H    0.5821114576    0.8233549436    0.4791748110         -0.0076
H825       H    0.6242830717    0.8278212409    0.4826323076         -0.0076
H826       H    0.6214872064    0.8809601752    0.4335347103         -0.0076
H827       H    0.5795356309    0.8763389742    0.4293911860         -0.0076
C828       C    0.6682229633    0.8093575350    0.4250552560         -0.0076
C829       C    0.6911319329    0.8155576509    0.4296517325         -0.0076
C830       C    0.7012813356    0.8111862294    0.4519658357         -0.0076
C831       C    0.6885852593    0.8008175184    0.4702053988         -0.0076
C832       C    0.6654346551    0.7948073603    0.4661901294         -0.0076
C833       C    0.6549622731    0.7985423977    0.4441518340         -0.0076
H834       H    0.7011904459    0.8236433368    0.4159642742         -0.0076
H835       H    0.7190944504    0.8160551622    0.4550256903         -0.0076
H836       H    0.6554697853    0.7869572858    0.4801383502         -0.0076
H837       H    0.6370541342    0.7938763214    0.4413074091         -0.0076
C838       C    0.8367383532    0.6749496417    0.5950211664         -0.0076
C839       C    0.8291883771    0.6937487699    0.6066321611         -0.0076
C840       C    0.8056366373    0.6964804914    0.6121728064         -0.0076
C841       C    0.7895197633    0.6806249272    0.6059132722         -0.0076
C842       C    0.7656267429    0.6828718926    0.6106121203         -0.0076
C843       C    0.7498810454    0.6668553280    0.6035109472         -0.0076
C844       C    0.7578154014    0.6485179899    0.5913982597         -0.0076
C845       C    0.7427256097    0.6321970089    0.5836746403         -0.0076
C846       C    0.7515539259    0.6143102956    0.5713460126         -0.0076
C847       C    0.7754541365    0.6130619449    0.5665952228         -0.0076
C848       C    0.7816434910    0.6463381882    0.5866351349         -0.0076
C849       C    0.7976143174    0.6621440405    0.5942315283         -0.0076
C850       C    0.9357734450    0.6669447270    0.5855223049         -0.0076
C851       C    0.7857397770    0.5948133442    0.5540358891         -0.0076
C852       C    0.7916581818    0.5967592033    0.5297982793         -0.0076
C853       C    0.8053223523    0.5811120231    0.5187991122         -0.0076
C854       C    0.8135707645    0.5635572463    0.5320499282         -0.0076
C855       C    0.8066622686    0.5611544217    0.5560871510         -0.0076
C856       C    0.7927758766    0.5767107967    0.5669912099         -0.0076
C857       C    0.8316944602    0.5498183243    0.5214913297         -0.0076
C858       C    0.8325992545    0.6484028141    0.5222527269         -0.0076
C859       C    0.8442396800    0.6443677876    0.5005678749         -0.0076
C860       C    0.8577093120    0.6257612239    0.4980897254         -0.0076
C861       C    0.8604404098    0.6118064747    0.5176096987         -0.0076
C862       C    0.8753648127    0.5940063275    0.5167231465         -0.0076
C863       C    0.8789542476    0.5813770052    0.5372305578         -0.0076
C864       C    0.8674269050    0.5862196993    0.5587790589         -0.0076
C865       C    0.8712516828    0.5745100041    0.5798565103         -0.0076
C866       C    0.8602602599    0.5806083527    0.6012207976         -0.0076
C867       C    0.8449943980    0.5982066945    0.6013540697         -0.0076
C868       C    0.8519481121    0.6036197550    0.5595667599         -0.0076
C869       C    0.8484455264    0.6163854655    0.5389306540         -0.0076
C870       C    0.7955418991    0.7321267777    0.5435928677         -0.0076
C871       C    0.8090926765    0.6377791711    0.6866956678         -0.0076
Cu872     Cu    0.8221853543    0.6331254826    0.5719536297             1.0
N873       N    0.8207703107    0.6596230389    0.5895407124         -0.0076
N874       N    0.7895118354    0.6290651039    0.5742904417         -0.0076
N875       N    0.8342669266    0.6338117401    0.5402060439         -0.0076
N876       N    0.8410228025    0.6088570938    0.5804651151         -0.0076
N877       N    0.9466783760    0.6502706526    0.5937767623         -0.0076
N878       N    0.8440427651    0.5372788395    0.5350554298         -0.0076
N879       N    0.7734574519    0.7358917393    0.5459717730         -0.0076
N880       N    0.8230227123    0.6472526829    0.7016639529         -0.0076
C881       C    0.8354969164    0.6065151880    0.6239948207         -0.0076
C882       C    0.8505619535    0.6116387970    0.6429300024         -0.0076
C883       C    0.8420599640    0.6215687010    0.6635610233         -0.0076
C884       C    0.8182766009    0.6262985629    0.6656616413         -0.0076
C885       C    0.8031346124    0.6205147750    0.6470232460         -0.0076
C886       C    0.8117197644    0.6107210469    0.6263140708         -0.0076
C887       C    0.9101405111    0.6677057109    0.5852426044         -0.0076
C888       C    0.8989411444    0.6864882118    0.5776350022         -0.0076
C889       C    0.8748617812    0.6885448344    0.5798160556         -0.0076
C890       C    0.8615836259    0.6718029316    0.5895742395         -0.0076
C891       C    0.8726207017    0.6526789509    0.5961142240         -0.0076
C892       C    0.8966962936    0.6505666165    0.5939616115         -0.0076
H893       H    0.8414606098    0.7061174499    0.6116431671         -0.0076
H894       H    0.8000448828    0.7109724730    0.6211897218         -0.0076
H895       H    0.7591189688    0.6970305406    0.6196353119         -0.0076
H896       H    0.7315554278    0.6688996093    0.6072736762         -0.0076
H897       H    0.7242476269    0.6332588547    0.5871358337         -0.0076
H898       H    0.7399354317    0.6016963990    0.5655094862         -0.0076
H899       H    0.9453415396    0.6808256800    0.5793214429         -0.0076
H900       H    0.7866545278    0.6108921852    0.5197596572         -0.0076
H901       H    0.8106647333    0.5834323137    0.5003541058         -0.0076
H902       H    0.8129078667    0.5478514466    0.5667723698         -0.0076
H903       H    0.7885582159    0.5751991915    0.5858435138         -0.0076
H904       H    0.8369896237    0.5532022175    0.5032710652         -0.0076
H905       H    0.8433962886    0.6557919313    0.4859652927         -0.0076
H906       H    0.8667808729    0.6228342379    0.4813965995         -0.0076
H907       H    0.8846680224    0.5901776343    0.5003908185         -0.0076
H908       H    0.8910026875    0.5680723775    0.5363287633         -0.0076
H909       H    0.8831604080    0.5610705634    0.5799706632         -0.0076
H910       H    0.8638722777    0.5718607887    0.6175719405         -0.0076
H911       H    0.8080039558    0.7450688105    0.5449712509         -0.0076
H912       H    0.7904444782    0.6396072142    0.6884040411         -0.0076
H913       H    0.8690458034    0.6086562704    0.6413703682         -0.0076
H914       H    0.8541204906    0.6258010611    0.6776910354         -0.0076
H915       H    0.7847272513    0.6239559493    0.6482745834         -0.0076
H916       H    0.7998237128    0.6064013095    0.6121543499         -0.0076
H917       H    0.9089122306    0.6998580461    0.5707322120         -0.0076
H918       H    0.8666591477    0.7034153655    0.5744405969         -0.0076
H919       H    0.8627914406    0.6398714799    0.6041758396         -0.0076
H920       H    0.9048118588    0.6358588547    0.5999824474         -0.0076
C921       C    0.8222494398    0.6694733775    0.5269413839         -0.0076
C922       C    0.7990702926    0.6718089026    0.5339506837         -0.0076
C923       C    0.7902364957    0.6921542137    0.5394830950         -0.0076
C924       C    0.8045214089    0.7104869468    0.5384464497         -0.0076
C925       C    0.8279474610    0.7085062312    0.5319090761         -0.0076
C926       C    0.8371701477    0.6886508487    0.5258945356         -0.0076
H927       H    0.7877947333    0.6579470641    0.5350004051         -0.0076
H928       H    0.7721886323    0.6935418271    0.5447408192         -0.0076
H929       H    0.8391192811    0.7224715906    0.5312085155         -0.0076
H930       H    0.8553032475    0.6873331516    0.5209428386         -0.0076
C931       C    0.8367244423    0.3223338178    0.4255985262         -0.0076
C932       C    0.8291737842    0.3035348989    0.4139875806         -0.0076
C933       C    0.8056219811    0.3008039868    0.4084467314         -0.0076
C934       C    0.7895057153    0.3166601562    0.4147060130         -0.0076
C935       C    0.7656126441    0.3144140167    0.4100069549         -0.0076
C936       C    0.7498675536    0.3304311776    0.4171078778         -0.0076
C937       C    0.7578025675    0.3487682953    0.4292205228         -0.0076
C938       C    0.7427133897    0.3650898524    0.4369438963         -0.0076
C939       C    0.7515423428    0.3829763146    0.4492724926         -0.0076
C940       C    0.7754425617    0.3842238394    0.4540234991         -0.0076
C941       C    0.7816307043    0.3509472738    0.4339838575         -0.0076
C942       C    0.7976009372    0.3351408146    0.4263877150         -0.0076
C943       C    0.9357597820    0.3303352584    0.4350982668         -0.0076
C944       C    0.7857288521    0.4024721383    0.4665828128         -0.0076
C945       C    0.7916469498    0.4005261925    0.4908204907         -0.0076
C946       C    0.8053116754    0.4161729428    0.5018196862         -0.0076
C947       C    0.8135609485    0.4337273585    0.4885688357         -0.0076
C948       C    0.8066527771    0.4361303062    0.4645315326         -0.0076
C949       C    0.7927658330    0.4205743695    0.4536274426         -0.0076
C950       C    0.8316851233    0.4474656897    0.4991275167         -0.0076
C951       C    0.8325857821    0.3488811640    0.4983667573         -0.0076
C952       C    0.8442261756    0.3529158871    0.5200516929         -0.0076
C953       C    0.8576965663    0.3715219844    0.5225298501         -0.0076
C954       C    0.8604284320    0.3854765367    0.5030098134         -0.0076
C955       C    0.8753535747    0.4032761576    0.5038963922         -0.0076
C956       C    0.8789437310    0.4159052476    0.4833889339         -0.0076
C957       C    0.8674163853    0.4110628535    0.4618403555         -0.0076
C958       C    0.8712418513    0.4227723051    0.4407628653         -0.0076
C959       C    0.8602503708    0.4166742384    0.4193985137         -0.0076
C960       C    0.8449837707    0.3990764390    0.4192652106         -0.0076
C961       C    0.8519368686    0.3936633444    0.4610526202         -0.0076
C962       C    0.8484335545    0.3808978638    0.4816887746         -0.0076
C963       C    0.7955251072    0.2651584096    0.4770268029         -0.0076
C964       C    0.8090811802    0.3595048038    0.3339235278         -0.0076
Cu965     Cu    0.8221729862    0.3641586123    0.4486656591             1.0
N966       N    0.8207569928    0.3376610165    0.4310787324         -0.0076
N967       N    0.7894996597    0.3682201411    0.4463285144         -0.0076
N968       N    0.8342542343    0.3634720870    0.4804133628         -0.0076
N969       N    0.8410115333    0.3884262875    0.4401541958         -0.0076
N970       N    0.9466654904    0.3470089028    0.4268438055         -0.0076
N971       N    0.8440340813    0.4600046661    0.4855634525         -0.0076
N972       N    0.7734405240    0.2613942214    0.4746477142         -0.0076
N973       N    0.8230109571    0.3500307202    0.3189554340         -0.0076
C974       C    0.8354861506    0.3907681678    0.3966244234         -0.0076
C975       C    0.8505511485    0.3856439263    0.3776894159         -0.0076
C976       C    0.8420489336    0.3757142194    0.3570583785         -0.0076
C977       C    0.8182653913    0.3709851928    0.3549575673         -0.0076
C978       C    0.8031234725    0.3767696143    0.3735957834         -0.0076
C979       C    0.8117088434    0.3865631428    0.3943049767         -0.0076
C980       C    0.9101268135    0.3295751877    0.4353777314         -0.0076
C981       C    0.8989265868    0.3107931240    0.4429853483         -0.0076
C982       C    0.8748471575    0.3087373467    0.4408040819         -0.0076
C983       C    0.8615697965    0.3254796720    0.4310456664         -0.0076
C984       C    0.8726077367    0.3446032268    0.4245056635         -0.0076
C985       C    0.8966833973    0.3467147158    0.4266584887         -0.0076
H986       H    0.8414455437    0.2911657568    0.4089767688         -0.0076
H987       H    0.8000297016    0.2863121581    0.3994298561         -0.0076
H988       H    0.7591043590    0.3002555541    0.4009837926         -0.0076
H989       H    0.7315418851    0.3283875289    0.4133449898         -0.0076
H990       H    0.7242353946    0.3640286462    0.4334825361         -0.0076
H991       H    0.7399243244    0.3955906542    0.4551088294         -0.0076
H992       H    0.9453272356    0.3164539967    0.4412993074         -0.0076
H993       H    0.7866426085    0.3863934398    0.5008591560         -0.0076
H994       H    0.8106537874    0.4138525562    0.5202647576         -0.0076
H995       H    0.8128990337    0.4494330046    0.4538462875         -0.0076
H996       H    0.7885484111    0.4220860285    0.4347750894         -0.0076
H997       H    0.8369799751    0.4440817012    0.5173478525         -0.0076
H998       H    0.8433821682    0.3414918480    0.5346543401         -0.0076
H999       H    0.8667680950    0.3744487329    0.5392230426         -0.0076
H1000      H    0.8846567933    0.4071046033    0.5202287832         -0.0076
H1001      H    0.8909927215    0.4292094513    0.4842907567         -0.0076
H1002      H    0.8831511422    0.4362113216    0.4406487385         -0.0076
H1003      H    0.8638629082    0.4254215906    0.4030473489         -0.0076
H1004      H    0.8079866329    0.2522159265    0.4756486194         -0.0076
H1005      H    0.7904329210    0.3576774153    0.3322149910         -0.0076
H1006      H    0.8690351092    0.3886258034    0.3792492047         -0.0076
H1007      H    0.8541094138    0.3714813582    0.3429285067         -0.0076
H1008      H    0.7847159784    0.3733290884    0.3723442950         -0.0076
H1009      H    0.7998128417    0.3908833755    0.4084645584         -0.0076
H1010      H    0.9088970471    0.2974229703    0.4498883176         -0.0076
H1011      H    0.8666438492    0.2938671348    0.4461795584         -0.0076
H1012      H    0.8627790887    0.3574110062    0.4164438737         -0.0076
H1013      H    0.9047996365    0.3614221581    0.4206376350         -0.0076
C1014      C    0.8222351257    0.3278109448    0.4936781376         -0.0076
C1015      C    0.7990559456    0.3254762084    0.4866686350         -0.0076
C1016      C    0.7902213453    0.3051311833    0.4811362706         -0.0076
C1017      C    0.8045054784    0.2867979474    0.4821731671         -0.0076
C1018      C    0.8279315530    0.2887778631    0.4887107482         -0.0076
C1019      C    0.8371550181    0.3086329483    0.4947252485         -0.0076
H1020      H    0.7877809785    0.3393384426    0.4856187191         -0.0076
H1021      H    0.7721734724    0.3037441850    0.4758783857         -0.0076
H1022      H    0.8391027797    0.2748121099    0.4894115028         -0.0076
H1023      H    0.8552881271    0.3099500257    0.4996771074         -0.0076
C1024      C    0.6507147579    0.1377964343    0.5577909198         -0.0076
C1025      C    0.6591482718    0.1367512177    0.5341158211         -0.0076
C1026      C    0.6825360940    0.1318663653    0.5298287772         -0.0076
C1027      C    0.6976318257    0.1282653386    0.5491005654         -0.0076
C1028      C    0.7213638404    0.1237952814    0.5456996507         -0.0076
C1029      C    0.7361203350    0.1208122260    0.5655073658         -0.0076
C1030      C    0.7273670543    0.1224959130    0.5889437738         -0.0076
C1031      C    0.7414779403    0.1199129314    0.6093148817         -0.0076
C1032      C    0.7318818264    0.1220427076    0.6323688003         -0.0076
C1033      C    0.7082257023    0.1270159141    0.6348066814         -0.0076
C1034      C    0.7037084153    0.1270428709    0.5923110341         -0.0076
C1035      C    0.6886852680    0.1295545200    0.5724710862         -0.0076
C1036      C    0.5519384813    0.1490525148    0.5659409155         -0.0076
C1037      C    0.6971611094    0.1292702804    0.6582641782         -0.0076
C1038      C    0.6926723544    0.1497500956    0.6673942729         -0.0076
C1039      C    0.6783723793    0.1522296548    0.6874101219         -0.0076
C1040      C    0.6680630556    0.1342751661    0.6982310167         -0.0076
C1041      C    0.6735113045    0.1136677672    0.6896879095         -0.0076
C1042      C    0.6880301620    0.1112045853    0.6698155659         -0.0076
C1043      C    0.6494530925    0.1376247894    0.7159666833         -0.0076
C1044      C    0.6564476428    0.1826617196    0.6181400080         -0.0076
C1045      C    0.6456479233    0.1987924741    0.6317484443         -0.0076
C1046      C    0.6308646273    0.1931624021    0.6507233986         -0.0076
C1047      C    0.6260164380    0.1715072769    0.6552960600         -0.0076
C1048      C    0.6097673856    0.1651030002    0.6726701702         -0.0076
C1049      C    0.6041202705    0.1433456291    0.6754360427         -0.0076
C1050      C    0.6148794089    0.1277043716    0.6610881742         -0.0076
C1051      C    0.6090425939    0.1059397863    0.6626693480         -0.0076
C1052      C    0.6193786038    0.0910647295    0.6471437181         -0.0076
C1053      C    0.6359902411    0.0979446987    0.6303348163         -0.0076
C1054      C    0.6316534231    0.1339600034    0.6441790483         -0.0076
C1055      C    0.6372316576    0.1558885581    0.6413347239         -0.0076
C1056      C    0.6989897516    0.2017247978    0.5270096639         -0.0076
C1057      C    0.6705316828    0.0461593171    0.5529430658         -0.0076
Cu1058    Cu    0.6630286693    0.1355786924    0.6105006345             1.0
N1059      N    0.6656647301    0.1338360675    0.5761702842         -0.0076
N1060      N    0.6951184779    0.1293966902    0.6148066103         -0.0076
N1061      N    0.6526879057    0.1618692007    0.6241172137         -0.0076
N1062      N    0.6418782925    0.1190597663    0.6297188730         -0.0076
N1063      N    0.5393119515    0.1356496002    0.5781091169         -0.0076
N1064      N    0.6354485418    0.1220499727    0.7215112260         -0.0076
N1065      N    0.7211624135    0.1999241166    0.5231138889         -0.0076
N1066      N    0.6566514542    0.0397703835    0.5360098503         -0.0076
C1067      C    0.6449507002    0.0831960354    0.6119663170         -0.0076
C1068      C    0.6293857975    0.0717501393    0.5974341279         -0.0076
C1069      C    0.6375889337    0.0594125284    0.5783582993         -0.0076
C1070      C    0.6615454059    0.0581496349    0.5737105794         -0.0076
C1071      C    0.6771185172    0.0690502720    0.5887600824         -0.0076
C1072      C    0.6688475517    0.0815187913    0.6077342545         -0.0076
C1073      C    0.5775399436    0.1476949416    0.5664041176         -0.0076
C1074      C    0.5905960650    0.1615396203    0.5518628974         -0.0076
C1075      C    0.6146279964    0.1589552539    0.5498322152         -0.0076
C1076      C    0.6260005808    0.1425128765    0.5623896530         -0.0076
C1077      C    0.6131335724    0.1293409762    0.5777731399         -0.0076
C1078      C    0.5890994478    0.1318768534    0.5798457789         -0.0076
H1079      H    0.6476647670    0.1394366279    0.5190351925         -0.0076
H1080      H    0.6888065022    0.1310255881    0.5115374549         -0.0076
H1081      H    0.7285192876    0.1227264928    0.5277736108         -0.0076
H1082      H    0.7543401135    0.1174067336    0.5625077192         -0.0076
H1083      H    0.7597859036    0.1162798943    0.6074332744         -0.0076
H1084      H    0.7427371045    0.1199448922    0.6480491126         -0.0076
H1085      H    0.5438469716    0.1610847001    0.5547090080         -0.0076
H1086      H    0.6993096341    0.1638313059    0.6583198150         -0.0076
H1087      H    0.6741890438    0.1682661256    0.6934930350         -0.0076
H1088      H    0.6656707745    0.0995532741    0.6975879364         -0.0076
H1089      H    0.6911375896    0.0953050672    0.6626958578         -0.0076
H1090      H    0.6453908087    0.1539719210    0.7208955992         -0.0076
H1091      H    0.6481593562    0.2155378902    0.6273036170         -0.0076
H1092      H    0.6224551328    0.2056711207    0.6610174592         -0.0076
H1093      H    0.6010360527    0.1769275181    0.6836773388         -0.0076
H1094      H    0.5910977781    0.1388148453    0.6884959560         -0.0076
H1095      H    0.5960960577    0.1005341126    0.6753946049         -0.0076
H1096      H    0.6142354900    0.0743845924    0.6480105676         -0.0076
H1097      H    0.6875504529    0.2075573521    0.5130484933         -0.0076
H1098      H    0.6891610940    0.0442514187    0.5511288765         -0.0076
H1099      H    0.6108194664    0.0729945875    0.6003269076         -0.0076
H1100      H    0.6251917295    0.0511219270    0.5670751018         -0.0076
H1101      H    0.6956614725    0.0682669787    0.5855545542         -0.0076
H1102      H    0.6810754656    0.0898048421    0.6191107033         -0.0076
H1103      H    0.5820982605    0.1739200367    0.5414464432         -0.0076
H1104      H    0.6242700845    0.1694551124    0.5379894469         -0.0076
H1105      H    0.6214757250    0.1163163369    0.5870873528         -0.0076
H1106      H    0.5795239262    0.1209361757    0.5912303784         -0.0076
C1107      C    0.6682086333    0.1879205616    0.5955668716         -0.0076
C1108      C    0.6911178919    0.1817211777    0.5909706909         -0.0076
C1109      C    0.7012673714    0.1860928197    0.5686566733         -0.0076
C1110      C    0.6885710963    0.1964610187    0.5504169018         -0.0076
C1111      C    0.6654202168    0.2024704340    0.5544318740         -0.0076
C1112      C    0.6549477365    0.1987351640    0.5764700761         -0.0076
H1113      H    0.7011765657    0.1736358935    0.6046583134         -0.0076
H1114      H    0.7190807072    0.1812244586    0.5655970490         -0.0076
H1115      H    0.6554551980    0.2103201086    0.5404834915         -0.0076
H1116      H    0.6370393868    0.2034006643    0.5793142709         -0.0076
C1117      C    0.7787375321    0.3594843302    0.0577814895         -0.0076
C1118      C    0.7703043148    0.3605295477    0.0341062826         -0.0076
C1119      C    0.7469166412    0.3654147767    0.0298189235         -0.0076
C1120      C    0.7318207581    0.3690161808    0.0490905049         -0.0076
C1121      C    0.7080888734    0.3734866259    0.0456892740         -0.0076
C1122      C    0.6933322087    0.3764700561    0.0654967910         -0.0076
C1123      C    0.7020851827    0.3747863612    0.0889333159         -0.0076
C1124      C    0.6879741120    0.3773697099    0.1093042364         -0.0076
C1125      C    0.6975699146    0.3752399089    0.1323582853         -0.0076
C1126      C    0.7212259098    0.3702663099    0.1347964854         -0.0076
C1127      C    0.7257436906    0.3702390164    0.0923008920         -0.0076
C1128      C    0.7407670179    0.3677269877    0.0724611417         -0.0076
C1129      C    0.8775134862    0.3482265986    0.0659327445         -0.0076
C1130      C    0.7322901842    0.3680118961    0.1582541309         -0.0076
C1131      C    0.7367784188    0.3475320592    0.1673844358         -0.0076
C1132      C    0.7510781109    0.3450523758    0.1874004737         -0.0076
C1133      C    0.7613876718    0.3630067529    0.1982213534         -0.0076
C1134      C    0.7559399390    0.3836141936    0.1896780235         -0.0076
C1135      C    0.7414213625    0.3860775044    0.1698054887         -0.0076
C1136      C    0.7799973608    0.3596569172    0.2159572666         -0.0076
C1137      C    0.7730030378    0.3146195114    0.1181308533         -0.0076
C1138      C    0.7838022728    0.2984886538    0.1317395414         -0.0076
C1139      C    0.7985854619    0.3041185869    0.1507146281         -0.0076
C1140      C    0.8034340360    0.3257736564    0.1552871813         -0.0076
C1141      C    0.8196830157    0.3321777593    0.1726614353         -0.0076
C1142      C    0.8253305386    0.3539350500    0.1754272083         -0.0076
C1143      C    0.8145718835    0.3695764053    0.1610790922         -0.0076
C1144      C    0.8204091202    0.3913408998    0.1626601686         -0.0076
C1145      C    0.8100735917    0.4062160399    0.1471343020         -0.0076
C1146      C    0.7934620108    0.3993362543    0.1303252556         -0.0076
C1147      C    0.7977979395    0.3633209593    0.1441698150         -0.0076
C1148      C    0.7922192946    0.3413924833    0.1413255923         -0.0076
C1149      C    0.7304616037    0.2955566103    0.0270001499         -0.0076
C1150      C    0.7589225167    0.4511217591    0.0529326982         -0.0076
Cu1151    Cu    0.7664230523    0.3617026053    0.1104910409             1.0
N1152      N    0.7637874261    0.3634450665    0.0761606460         -0.0076
N1153      N    0.7343333186    0.3678851863    0.1147965883         -0.0076
N1154      N    0.7767631259    0.3354120020    0.1241079443         -0.0076
N1155      N    0.7875735396    0.3782212843    0.1297094041         -0.0076
N1156      N    0.8901401455    0.3616293700    0.0781009933         -0.0076
N1157      N    0.7940021620    0.3752315266    0.2215018564         -0.0076
N1158      N    0.7082890235    0.2973576496    0.0231040977         -0.0076
N1159      N    0.7728030715    0.4575103505    0.0359995986         -0.0076
C1160      C    0.7845020637    0.4140849599    0.1119565369         -0.0076
C1161      C    0.8000673669    0.4255304995    0.0974244450         -0.0076
C1162      C    0.7918647022    0.4378681354    0.0783484245         -0.0076
C1163      C    0.7679083095    0.4391314131    0.0737004103         -0.0076
C1164      C    0.7523348027    0.4282311358    0.0887498119         -0.0076
C1165      C    0.7606052954    0.4157625898    0.1077241778         -0.0076
C1166      C    0.8519120460    0.3495846154    0.0663956322         -0.0076
C1167      C    0.8388558138    0.3357400729    0.0518543629         -0.0076
C1168      C    0.8148239583    0.3383248408    0.0498233755         -0.0076
C1169      C    0.8034515603    0.3547674904    0.0623805523         -0.0076
C1170      C    0.8163186561    0.3679392630    0.0777640912         -0.0076
C1171      C    0.8403527053    0.3654029846    0.0798370351         -0.0076
H1172      H    0.7817879407    0.3578438479    0.0190258110         -0.0076
H1173      H    0.7406464628    0.3662555504    0.0115275203         -0.0076
H1174      H    0.7009336563    0.3745554284    0.0277631409         -0.0076
H1175      H    0.6751125340    0.3798758439    0.0624969019         -0.0076
H1176      H    0.6696662440    0.3810030507    0.1074223838         -0.0076
H1177      H    0.6867144965    0.3773380067    0.1480384526         -0.0076
H1178      H    0.8856048832    0.3361942055    0.0547010253         -0.0076
H1179      H    0.7301409599    0.3334509079    0.1583100069         -0.0076
H1180      H    0.7552610513    0.3290158700    0.1934835592         -0.0076
H1181      H    0.7637806625    0.3977285997    0.1975780355         -0.0076
H1182      H    0.7383143393    0.4019770325    0.1626856219         -0.0076
H1183      H    0.7840592567    0.3433097457    0.2208863560         -0.0076
H1184      H    0.7812905529    0.2817432539    0.1272948125         -0.0076
H1185      H    0.8069945837    0.2916097862    0.1610088844         -0.0076
H1186      H    0.8284139814    0.3203531581    0.1836687982         -0.0076
H1187      H    0.8383529707    0.3584656891    0.1884872415         -0.0076
H1188      H    0.8333556176    0.3967464281    0.1753855379         -0.0076
H1189      H    0.8152170328    0.4228960937    0.1480010848         -0.0076
H1190      H    0.7419009469    0.2897237740    0.0130391598         -0.0076
H1191      H    0.7402931652    0.4530299672    0.0511182730         -0.0076
H1192      H    0.8186336392    0.4242857492    0.1003174548         -0.0076
H1193      H    0.8042622053    0.4461584546    0.0670653107         -0.0076
H1194      H    0.7337919005    0.4290147289    0.0855440575         -0.0076
H1195      H    0.7483770815    0.4074768188    0.1191005448         -0.0076
H1196      H    0.8473534891    0.3233594467    0.0414381046         -0.0076
H1197      H    0.8051817956    0.3278250761    0.0379805731         -0.0076
H1198      H    0.8079766585    0.3809641027    0.0870781052         -0.0076
H1199      H    0.8499283157    0.3763435667    0.0912216645         -0.0076
C1200      C    0.7612422036    0.3093607343    0.0955576174         -0.0076
C1201      C    0.7383331238    0.3155604847    0.0909611172         -0.0076
C1202      C    0.7281838155    0.3111888814    0.0686470125         -0.0076
C1203      C    0.7408800931    0.3008203527    0.0504074712         -0.0076
C1204      C    0.7640308044    0.2948105632    0.0544227644         -0.0076
C1205      C    0.7745031039    0.2985457873    0.0764610623         -0.0076
H1206      H    0.7282744543    0.3236460255    0.1046485583         -0.0076
H1207      H    0.7103706138    0.3160575306    0.0655871394         -0.0076
H1208      H    0.7739958267    0.2869606321    0.0404745604         -0.0076
H1209      H    0.7924113261    0.2938799959    0.0793055055         -0.0076
C1210      C    0.5927229427    0.1749510696    0.9255955187         -0.0076
C1211      C    0.6002728466    0.1937501486    0.9139843703         -0.0076
C1212      C    0.6238245199    0.1964817636    0.9084433550         -0.0076
C1213      C    0.6399414034    0.1806261419    0.9147026707         -0.0076
C1214      C    0.6638343671    0.1828730007    0.9100034483         -0.0076
C1215      C    0.6795800857    0.1668563814    0.9171044089         -0.0076
C1216      C    0.6716458116    0.1485190949    0.9292172550         -0.0076
C1217      C    0.6867356318    0.1321980630    0.9369406727         -0.0076
C1218      C    0.6779074031    0.1143114053    0.9492694719         -0.0076
C1219      C    0.6540072551    0.1130631613    0.9540206343         -0.0076
C1220      C    0.6478177801    0.1463393996    0.9339807530         -0.0076
C1221      C    0.6318469243    0.1621453068    0.9263845760         -0.0076
C1222      C    0.4936879480    0.1669465814    0.9350959291         -0.0076
C1223      C    0.6437217036    0.0948146227    0.9665801629         -0.0076
C1224      C    0.6378036611    0.0967605435    0.9908178605         -0.0076
C1225      C    0.6241395702    0.0811134370    0.0018172697         -0.0076
C1226      C    0.6158908752    0.0635586742    0.9885666158         -0.0076
C1227      C    0.6227990095    0.0611557840    0.9645292907         -0.0076
C1228      C    0.6366853227    0.0767120846    0.9536249864         -0.0076
C1229      C    0.5977672626    0.0498198438    0.9991255217         -0.0076
C1230      C    0.5968629631    0.1484043362    0.9983639459         -0.0076
C1231      C    0.5852228320    0.1443693914    0.0200489860         -0.0076
C1232      C    0.5717531406    0.1257628875    0.0225273804         -0.0076
C1233      C    0.5690216875    0.1118081198    0.0030074767         -0.0076
C1234      C    0.5540972061    0.0940080360    0.0038942947         -0.0076
C1235      C    0.5505074083    0.0813786972    0.9833869636         -0.0076
C1236      C    0.5620344625    0.0862213104    0.9618382746         -0.0076
C1237      C    0.5582093182    0.0745115988    0.9407609053         -0.0076
C1238      C    0.5692004619    0.0806098689    0.9193964359         -0.0076
C1239      C    0.5844664121    0.0982081470    0.9192628931         -0.0076
C1240      C    0.5775133332    0.1036213005    0.9610503000         -0.0076
C1241      C    0.5810162845    0.1163870280    0.9816863267         -0.0076
C1242      C    0.6339204379    0.2321281129    0.9770230678         -0.0076
C1243      C    0.6203670961    0.1377803435    0.8339206618         -0.0076
Cu1244    Cu    0.6072760624    0.1331268852    0.9486629117             1.0
N1245      N    0.6086909863    0.1596244087    0.9310757554         -0.0076
N1246      N    0.6399495265    0.1290663670    0.9463256018         -0.0076
N1247      N    0.5951949551    0.1338132416    0.9804106832         -0.0076
N1248      N    0.5884383660    0.1088585618    0.9401517654         -0.0076
N1249      N    0.4827828114    0.1502725397    0.9268416732         -0.0076
N1250      N    0.5854186961    0.0372803896    0.9855616373         -0.0076
N1251      N    0.6560048698    0.2358929790    0.9746438133         -0.0076
N1252      N    0.6064368914    0.1472538903    0.8189525739         -0.0076
C1253      C    0.5939636073    0.1065165663    0.8966219788         -0.0076
C1254      C    0.5788983212    0.1116402089    0.8776870203         -0.0076
C1255      C    0.5874000617    0.1215700460    0.8570558485         -0.0076
C1256      C    0.6111834186    0.1262998057    0.8549548530         -0.0076
C1257      C    0.6263256483    0.1205159834    0.8735930251         -0.0076
C1258      C    0.6177407471    0.1107223227    0.8943023523         -0.0076
C1259      C    0.5193208898    0.1677074591    0.9353752313         -0.0076
C1260      C    0.5305204636    0.1864899250    0.9429826234         -0.0076
C1261      C    0.5545998056    0.1885464442    0.9408011932         -0.0076
C1262      C    0.5678777331    0.1718044712    0.9310428364         -0.0076
C1263      C    0.5568404641    0.1526805263    0.9245030601         -0.0076
C1264      C    0.5327648927    0.1505682954    0.9266560496         -0.0076
H1265      H    0.5880006045    0.2061188720    0.9089735301         -0.0076
H1266      H    0.6294162177    0.2109737081    0.8994263248         -0.0076
H1267      H    0.6703420827    0.1970316078    0.9009801283         -0.0076
H1268      H    0.6979056590    0.1689005808    0.9133413921         -0.0076
H1269      H    0.7052135697    0.1332598266    0.9334791911         -0.0076
H1270      H    0.6895259174    0.1016974693    0.9551058431         -0.0076
H1271      H    0.4841200148    0.1808275837    0.9412969122         -0.0076
H1272      H    0.6428075336    0.1108935200    0.0008563775         -0.0076
H1273      H    0.6187974692    0.0834337781    0.0202623543         -0.0076
H1274      H    0.6165531877    0.0478528186    0.9538441945         -0.0076
H1275      H    0.6409027017    0.0752004329    0.9347726202         -0.0076
H1276      H    0.5924723813    0.0532037869    0.0173458616         -0.0076
H1277      H    0.5860664944    0.1557935539    0.0346515328         -0.0076
H1278      H    0.5626818073    0.1228359648    0.0392206525         -0.0076
H1279      H    0.5447942142    0.0901794065    0.0202267743         -0.0076
H1280      H    0.5384589132    0.0680741210    0.9842889707         -0.0076
H1281      H    0.5463005224    0.0610722075    0.9406469631         -0.0076
H1282      H    0.5655881615    0.0718622948    0.9030453661         -0.0076
H1283      H    0.6214584275    0.2450701955    0.9756448523         -0.0076
H1284      H    0.6390152790    0.1396083064    0.8322119962         -0.0076
H1285      H    0.5604144787    0.1086577616    0.8792469466         -0.0076
H1286      H    0.5753393515    0.1258024346    0.8429260148         -0.0076
H1287      H    0.6447330089    0.1239570791    0.8723413959         -0.0076
H1288      H    0.6296369824    0.1064025575    0.9084618975         -0.0076
H1289      H    0.5205495462    0.1998598114    0.9498855419         -0.0076
H1290      H    0.5628025935    0.2034169493    0.9461764958         -0.0076
H1291      H    0.5666695424    0.1398730021    0.9164413173         -0.0076
H1292      H    0.5246491645    0.1358605582    0.9206353680         -0.0076
C1293      C    0.6072128177    0.1694748493    0.9936750875         -0.0076
C1294      C    0.6303918750    0.1718102672    0.9866654243         -0.0076
C1295      C    0.6392256959    0.1921555332    0.9811328364         -0.0076
C1296      C    0.6249408919    0.2104883272    0.9821696671         -0.0076
C1297      C    0.6015149246    0.2085077191    0.9887074073         -0.0076
C1298      C    0.5922922234    0.1886523842    0.9947221294         -0.0076
H1299      H    0.6416673479    0.1579483802    0.9856155553         -0.0076
H1300      H    0.6572734900    0.1935430634    0.9758748301         -0.0076
H1301      H    0.5903431864    0.2224731261    0.9894081135         -0.0076
H1302      H    0.5741591889    0.1873347701    0.9996741097         -0.0076
C1303      C    0.5927363812    0.8223262243    0.0950251426         -0.0076
C1304      C    0.6002869822    0.8035272816    0.1066360770         -0.0076
C1305      C    0.6238388575    0.8007960916    0.1121764249         -0.0076
C1306      C    0.6399552453    0.8166520042    0.1059166526         -0.0076
C1307      C    0.6638483788    0.8144055766    0.1106151979         -0.0076
C1308      C    0.6795935763    0.8304224799    0.1035137911         -0.0076
C1309      C    0.6716586017    0.8487596233    0.0914011697         -0.0076
C1310      C    0.6867478782    0.8650809275    0.0836773245         -0.0076
C1311      C    0.6779189527    0.8829674258    0.0713487754         -0.0076
C1312      C    0.6540186545    0.8842152385    0.0665982903         -0.0076
C1313      C    0.6478304001    0.8509388885    0.0866383470         -0.0076
C1314      C    0.6318600739    0.8351326931    0.0942349766         -0.0076
C1315      C    0.4937009707    0.8303289252    0.0855275385         -0.0076
C1316      C    0.6437323926    0.9024635915    0.0540390532         -0.0076
C1317      C    0.6378137577    0.9005175639    0.0298015232         -0.0076
C1318      C    0.6241490517    0.9161644238    0.0188025012         -0.0076
C1319      C    0.6159003351    0.9337190377    0.0320533889         -0.0076
C1320      C    0.6228090469    0.9361220526    0.0560905182         -0.0076
C1321      C    0.6366959708    0.9205660027    0.0669944291         -0.0076
C1322      C    0.5977761588    0.9474575410    0.0214949965         -0.0076
C1323      C    0.5968739446    0.8488730323    0.0222565981         -0.0076
C1324      C    0.5852331625    0.8529077671    0.0005718878         -0.0076
C1325      C    0.5717630165    0.8715140279    0.9980938751         -0.0076
C1326      C    0.5690317810    0.8854687463    0.0176138562         -0.0076
C1327      C    0.5541069035    0.9032685607    0.0167274610         -0.0076
C1328      C    0.5505173768    0.9158978348    0.0372348939         -0.0076
C1329      C    0.5620450954    0.9110554297    0.0587832562         -0.0076
C1330      C    0.5582202563    0.9227650722    0.0798607339         -0.0076
C1331      C    0.5692120858    0.9166670004    0.1012248918         -0.0076
C1332      C    0.5844784083    0.8990689979    0.1013580020         -0.0076
C1333      C    0.5775243512    0.8936557189    0.0595707922         -0.0076
C1334      C    0.5810270308    0.8808900546    0.0389346663         -0.0076
C1335      C    0.6339337309    0.7651499244    0.0435964261         -0.0076
C1336      C    0.6203821506    0.8594974494    0.1866992160         -0.0076
Cu1337    Cu    0.6072880221    0.8641506713    0.0719573372             1.0
N1338      N    0.6087039605    0.8376531733    0.0895444534         -0.0076
N1339      N    0.6399614622    0.8682117791    0.0742937211         -0.0076
N1340      N    0.5952060999    0.8634640968    0.0402099080         -0.0076
N1341      N    0.5884500396    0.8884186548    0.0804690173         -0.0076
N1342      N    0.4827957004    0.8470027701    0.0937821035         -0.0076
N1343      N    0.5854276840    0.9599967724    0.0350592309         -0.0076
N1344      N    0.6560183038    0.7613854568    0.0459750548         -0.0076
N1345      N    0.6064525353    0.8500236512    0.2016676987         -0.0076
C1346      C    0.5939763689    0.8907607500    0.1239986472         -0.0076
C1347      C    0.5789116848    0.8856368355    0.1429340326         -0.0076
C1348      C    0.5874141723    0.8757071519    0.1635649636         -0.0076
C1349      C    0.6111976831    0.8709778214    0.1656652851         -0.0076
C1350      C    0.6263393048    0.8767619170    0.1470266839         -0.0076
C1351      C    0.6177536574    0.8865554227    0.1263175999         -0.0076
C1352      C    0.5193339212    0.8295685101    0.0852475100         -0.0076
C1353      C    0.5305336897    0.8107862463    0.0776398006         -0.0076
C1354      C    0.5546131317    0.8087301617    0.0798205484         -0.0076
C1355      C    0.5678909634    0.8254723744    0.0895785289         -0.0076
C1356      C    0.5568534646    0.8445961200    0.0961186179         -0.0076
C1357      C    0.5327777927    0.8467079165    0.0939663107         -0.0076
H1358      H    0.5880151302    0.7911583367    0.1116472650         -0.0076
H1359      H    0.6294310944    0.7863042481    0.1211932967         -0.0076
H1360      H    0.6703566267    0.8002470869    0.1196383335         -0.0076
H1361      H    0.6979192908    0.8283786113    0.1072762885         -0.0076
H1362      H    0.7052259288    0.8640194973    0.0871382824         -0.0076
H1363      H    0.6895370503    0.8955815715    0.0655120750         -0.0076
H1364      H    0.4841331663    0.8164477502    0.0793268266         -0.0076
H1365      H    0.6428176640    0.8863846777    0.0197628645         -0.0076
H1366      H    0.6188065175    0.9138439862    0.0003575680         -0.0076
H1367      H    0.6165632255    0.9494249053    0.0667757914         -0.0076
H1368      H    0.6409138106    0.9220777304    0.0858466757         -0.0076
H1369      H    0.5924808725    0.9440735023    0.0032748067         -0.0076
H1370      H    0.5860766827    0.8414836198    0.9859693171         -0.0076
H1371      H    0.5626911859    0.8744407868    0.9814008601         -0.0076
H1372      H    0.5448034048    0.9070970223    0.0003952451         -0.0076
H1373      H    0.5384685795    0.9292021935    0.0363332282         -0.0076
H1374      H    0.5463111820    0.9362042486    0.0799750136         -0.0076
H1375      H    0.5656000294    0.9254145094    0.1175760641         -0.0076
H1376      H    0.6214720276    0.7522076170    0.0449749948         -0.0076
H1377      H    0.6390304163    0.8576698230    0.1884073531         -0.0076
H1378      H    0.5604277390    0.8886189493    0.1413746301         -0.0076
H1379      H    0.5753539198    0.8714745457    0.1776951391         -0.0076
H1380      H    0.6447467702    0.8733211534    0.1482777914         -0.0076
H1381      H    0.6296494323    0.8908754026    0.1121577176         -0.0076
H1382      H    0.5205628721    0.7974161800    0.0707371646         -0.0076
H1383      H    0.5628160908    0.7938598046    0.0744450134         -0.0076
H1384      H    0.5666824851    0.8574038216    0.1041800822         -0.0076
H1385      H    0.5246619136    0.8614155072    0.0999872223         -0.0076
C1386      C    0.6072243631    0.8278027060    0.0269451631         -0.0076
C1387      C    0.6304036524    0.8254677064    0.0339541696         -0.0076
C1388      C    0.6392380440    0.8051225999    0.0394865071         -0.0076
C1389      C    0.6249535970    0.7867895480    0.0384500813         -0.0076
C1390      C    0.6015274175    0.7887697334    0.0319130048         -0.0076
C1391      C    0.5923041432    0.8086249018    0.0258985441         -0.0076
H1392      H    0.6416788623    0.8393297969    0.0350037190         -0.0076
H1393      H    0.6572860046    0.8037353953    0.0447440020         -0.0076
H1394      H    0.5903559536    0.7748041248    0.0312126152         -0.0076
H1395      H    0.5741709518    0.8099421887    0.0209470777         -0.0076
C1396      C    0.7787384692    0.6377930547    0.9628333640         -0.0076
C1397      C    0.7703048025    0.6367475634    0.9865083898         -0.0076
C1398      C    0.7469169712    0.6318625827    0.9907952056         -0.0076
C1399      C    0.7318213816    0.6282617008    0.9715232644         -0.0076
C1400      C    0.7080893621    0.6237915232    0.9749239540         -0.0076
C1401      C    0.6933330107    0.6208086193    0.9551160963         -0.0076
C1402      C    0.7020864401    0.6224925797    0.9316797717         -0.0076
C1403      C    0.6879756994    0.6199097578    0.9113085310         -0.0076
C1404      C    0.6975719577    0.6220398065    0.8882547075         -0.0076
C1405      C    0.7212280782    0.6270131231    0.8858170576         -0.0076
C1406      C    0.7257450834    0.6270396574    0.9283127371         -0.0076
C1407      C    0.7407680892    0.6295511556    0.9481528234         -0.0076
C1408      C    0.8775147551    0.6490495741    0.9546842109         -0.0076
C1409      C    0.7322928177    0.6292677713    0.8623596680         -0.0076
C1410      C    0.7367815518    0.6497476969    0.8532298687         -0.0076
C1411      C    0.7510816497    0.6522275141    0.8332141525         -0.0076
C1412      C    0.7613911165    0.6342731742    0.8223930993         -0.0076
C1413      C    0.7559428929    0.6136656675    0.8309359027         -0.0076
C1414      C    0.7414239134    0.6112022282    0.8508081120         -0.0076
C1415      C    0.7800011839    0.6376230474    0.8046576073         -0.0076
C1416      C    0.7730058061    0.6826589424    0.9024848132         -0.0076
C1417      C    0.7838055518    0.6987898763    0.8888766609         -0.0076
C1418      C    0.7985889959    0.6931600533    0.8699017385         -0.0076
C1419      C    0.8034373016    0.6715049927    0.8653288324         -0.0076
C1420      C    0.8196864945    0.6651009537    0.8479547545         -0.0076
C1421      C    0.8253337145    0.6433436314    0.8451886417         -0.0076
C1422      C    0.8145745431    0.6277021872    0.8595362327         -0.0076
C1423      C    0.8204114550    0.6059376391    0.8579548199         -0.0076
C1424      C    0.8100754013    0.5910623850    0.8734801852         -0.0076
C1425      C    0.7934636252    0.5979421210    0.8902890583         -0.0076
C1426      C    0.7978003919    0.6339575842    0.8764453208         -0.0076
C1427      C    0.7922220514    0.6558860895    0.8792898882         -0.0076
C1428      C    0.7304630175    0.7017209270    0.9936151024         -0.0076
C1429      C    0.7589218762    0.5461558163    0.9676798980         -0.0076
Cu1430    Cu    0.7664249160    0.6355758128    0.9101235339             1.0
N1431      N    0.7637886345    0.6338328239    0.9444538431         -0.0076
N1432      N    0.7343351605    0.6293937398    0.9058172518         -0.0076
N1433      N    0.7767656655    0.6618664988    0.8965073663         -0.0076
N1434      N    0.7875754858    0.6190571611    0.8909052320         -0.0076
N1435      N    0.8901414188    0.6356468304    0.9425159260         -0.0076
N1436      N    0.7940058332    0.6220483382    0.7991129629         -0.0076
N1437      N    0.7082903368    0.6999201260    0.9975106976         -0.0076
N1438      N    0.7728020179    0.5397667577    0.9846131292         -0.0076
C1439      C    0.7845031030    0.5831932359    0.9086573044         -0.0076
C1440      C    0.8000679548    0.5717472456    0.9231894560         -0.0076
C1441      C    0.7918647412    0.5594094083    0.9422650678         -0.0076
C1442      C    0.7679082431    0.5581463807    0.9469126023         -0.0076
C1443      C    0.7523351883    0.5690471174    0.9318631297         -0.0076
C1444      C    0.7606062301    0.5815158622    0.9128891765         -0.0076
C1445      C    0.8519133013    0.6476919138    0.9542208104         -0.0076
C1446      C    0.8388570284    0.6615363954    0.9687621168         -0.0076
C1447      C    0.8148250938    0.6589519217    0.9707925960         -0.0076
C1448      C    0.8034526580    0.6425096332    0.9582348661         -0.0076
C1449      C    0.8163198207    0.6293379378    0.9428513004         -0.0076
C1450      C    0.8403539491    0.6318739228    0.9407788638         -0.0076
H1451      H    0.7817881967    0.6394328592    0.0015891340         -0.0076
H1452      H    0.7406464451    0.6310215942    0.0090864728         -0.0076
H1453      H    0.7009338003    0.6227225239    0.9928499296         -0.0076
H1454      H    0.6751132259    0.6174030306    0.9581155703         -0.0076
H1455      H    0.6696677381    0.6162766355    0.9131899622         -0.0076
H1456      H    0.6867167919    0.6199421140    0.8725742916         -0.0076
H1457      H    0.8856061425    0.6610816725    0.9659163305         -0.0076
H1458      H    0.7301441560    0.6638287897    0.8623044610         -0.0076
H1459      H    0.7552649618    0.6682640627    0.8271314756         -0.0076
H1460      H    0.7637835313    0.5995512841    0.8230357494         -0.0076
H1461      H    0.7383165018    0.5953026256    0.8579275934         -0.0076
H1462      H    0.7840634354    0.6539702445    0.7997289306         -0.0076
H1463      H    0.7812940228    0.7155352375    0.8933216861         -0.0076
H1464      H    0.8069985089    0.7056689084    0.8596078984         -0.0076
H1465      H    0.8284178534    0.6769256166    0.8369477998         -0.0076
H1466      H    0.8383563114    0.6388130293    0.8321287620         -0.0076
H1467      H    0.8333580970    0.6005321433    0.8452295847         -0.0076
H1468      H    0.8152185872    0.5743822753    0.8726131573         -0.0076
H1469      H    0.7419022004    0.7075533782    0.0075764289         -0.0076
H1470      H    0.7402924606    0.5442478323    0.9694939312         -0.0076
H1471      H    0.8186343001    0.5729917904    0.9202968234         -0.0076
H1472      H    0.8042619035    0.5511187349    0.9535482460         -0.0076
H1473      H    0.7337922148    0.5682637243    0.9350685168         -0.0076
H1474      H    0.7483783587    0.5898019866    0.9015127481         -0.0076
H1475      H    0.8473547147    0.6739167348    0.9791787904         -0.0076
H1476      H    0.8051828855    0.6694516233    0.9826354315         -0.0076
H1477      H    0.8079777816    0.6163133648    0.9335368609         -0.0076
H1478      H    0.8499295895    0.6209333970    0.9293941910         -0.0076
C1479      C    0.7612446451    0.6879175092    0.9250579343         -0.0076
C1480      C    0.7383353806    0.6817179955    0.9296538734         -0.0076
C1481      C    0.7281857358    0.6860893708    0.9519678756         -0.0076
C1482      C    0.7408818488    0.6964574270    0.9702078702         -0.0076
C1483      C    0.7640327311    0.7024669669    0.9661931390         -0.0076
C1484      C    0.7745053723    0.6987319620    0.9441549627         -0.0076
H1485      H    0.7282768297    0.6736328165    0.9159660757         -0.0076
H1486      H    0.7103723991    0.6812209141    0.9550273114         -0.0076
H1487      H    0.7739976261    0.7103165333    0.9801416929         -0.0076
H1488      H    0.7924137223    0.7033975560    0.9413109544         -0.0076
C2109      C    0.6945321923    0.7160979720    0.0102666512         -0.0076
H2110      H    0.7043438066    0.7425291405    0.9862085103         -0.0076
C2111      C    0.6689239905    0.7156330355    0.0015702324         -0.0076
H2112      H    0.6612939734    0.6994734720    0.0046951204         -0.0076
H2113      H    0.6681221399    0.7187740538    0.9819385621         -0.0076
C2114      C    0.6543309220    0.7327919556    0.0150917226         -0.0076
H2115      H    0.6465665190    0.7441195278    0.0019092702         -0.0076
H2116      H    0.6397240370    0.7248290552    0.0246744894         -0.0076
C2117      C    0.6803212255    0.7288503030    0.0511451067         -0.0076
C2118      C    0.6697764483    0.7452076108    0.0332191012         -0.0076
C2119      C    0.7044431488    0.7388839000    0.0057531209         -0.0076
C2120      C    0.6948752678    0.7117326312    0.0376524323         -0.0076
H2121      H    0.6915773075    0.7372774652    0.0643713984         -0.0076
H2122      H    0.6662178998    0.7208039252    0.0614208017         -0.0076
H2123      H    0.7228351734    0.7397579773    0.0118774547         -0.0076
H2124      H    0.7130649092    0.7120006189    0.0444468696         -0.0076
H2125      H    0.6877311728    0.6955017595    0.0414681975         -0.0076
C2126      C    0.6899266825    0.7559480927    0.0192100141         -0.0076
H2127      H    0.6828836189    0.7677391791    0.0060914054         -0.0076
H2128      H    0.7013924683    0.7649508508    0.0317549475         -0.0076
C2089      C    0.5854253251    0.9802795579    0.0220687795         -0.0076
H2090      H    0.5478919176    0.9857266019    0.0262690713         -0.0076
C2091      C    0.5922390189    0.9989606507    0.0390502702         -0.0076
H2092      H    0.6097932322    0.9960448048    0.0467694535         -0.0076
H2093      H    0.5798000556    0.9999067580    0.0542983593         -0.0076
C2094      C    0.5922325330    0.0206042833    0.0251950844         -0.0076
H2095      H    0.5797895433    0.0318766031    0.0338344985         -0.0076
H2096      H    0.6097855437    0.0280318194    0.0262989698         -0.0076
C2097      C    0.6030923679    0.0011501123    0.9872515989         -0.0076
C2098      C    0.5854210549    0.0169976041    0.9985520887         -0.0076
C2099      C    0.5609814791    0.9850310654    0.0115883432         -0.0076
C2100      C    0.6030985964    0.9795612585    0.0010780246         -0.0076
H2101      H    0.5986217884    0.9981782299    0.9681102721         -0.0076
H2102      H    0.6208583922    0.0081963782    0.9876283157         -0.0076
H2103      H    0.5556018987    0.9719052340    0.9992429078         -0.0076
H2104      H    0.5986322743    0.9663017571    0.9885289021         -0.0076
H2105      H    0.6208628312    0.9762842237    0.0080726452         -0.0076
C2106      C    0.5609820224    0.0065589594    0.9978027151         -0.0076
H2107      H    0.5478999123    0.0175420601    0.0059060866         -0.0076
H2108      H    0.5556129329    0.0036974207    0.9788859231         -0.0076
C2069      C    0.7728027813    0.4801683750    0.0218448851         -0.0076
H2070      H    0.7396166740    0.4742600025    0.0034451046         -0.0076
C2071      C    0.7627176420    0.4981623735    0.0380007003         -0.0076
H2072      H    0.7732219770    0.4996620555    0.0546770710         -0.0076
H2073      H    0.7446541300    0.4940821286    0.0434834335         -0.0076
C2074      C    0.7627106520    0.5199352747    0.0244012443         -0.0076
H2075      H    0.7446422028    0.5262424952    0.0233964992         -0.0076
H2076      H    0.7732099184    0.5318400848    0.0345845829         -0.0076
C2077      C    0.7978934175    0.5082121999    0.0009832102         -0.0076
C2078      C    0.7728023081    0.5171087332    0.9987678428         -0.0076
C2079      C    0.7577982112    0.4787083484    0.9987790395         -0.0076
C2080      C    0.7978968542    0.4864937401    0.0145533426         -0.0076
H2081      H    0.8056011143    0.5059416989    0.9828448518         -0.0076
H2082      H    0.8090736061    0.5198857512    0.0107213546         -0.0076
H2083      H    0.7646448949    0.4659362124    0.9867472794         -0.0076
H2084      H    0.8056052912    0.4738738880    0.0028851839         -0.0076
H2085      H    0.8090715800    0.4877800548    0.0307830313         -0.0076
C2086      C    0.7577990890    0.5003672351    0.9852525252         -0.0076
H2087      H    0.7396180254    0.5062701108    0.9834673784         -0.0076
H2088      H    0.7646533295    0.4979246126    0.9667785183         -0.0076
C2049      C    0.6697667342    0.2520712740    0.9873991859         -0.0076
H2050      H    0.6989846648    0.2510759483    0.9620074104         -0.0076
C2051      C    0.6621411758    0.2749578785    0.9798362782         -0.0076
H2052      H    0.6433753166    0.2773460018    0.9838629480         -0.0076
H2053      H    0.6644110778    0.2770658729    0.9601542422         -0.0076
C2054      C    0.6767359339    0.2921166311    0.9933560891         -0.0076
H2055      H    0.6859689004    0.3024113060    0.9801224800         -0.0076
H2056      H    0.6649402502    0.3027066070    0.0038400913         -0.0076
C2057      C    0.6809726335    0.2669382365    0.0283789260         -0.0076
C2058      C    0.6945271591    0.2811793546    0.0103487251         -0.0076
C2059      C    0.6959986332    0.2494605522    0.9816508182         -0.0076
C2060      C    0.6664117641    0.2498243443    0.0148881022         -0.0076
H2061      H    0.6932906248    0.2588017222    0.0408004064         -0.0076
H2062      H    0.6692513869    0.2770386493    0.0395361512         -0.0076
H2063      H    0.7020343588    0.2331705688    0.9869419391         -0.0076
H2064      H    0.6717882953    0.2335337220    0.0208787687         -0.0076
H2065      H    0.6477282888    0.2517418827    0.0195862734         -0.0076
C2066      C    0.7105121779    0.2665278126    0.9951061984         -0.0076
H2067      H    0.7204228238    0.2763029652    0.9818886743         -0.0076
H2068      H    0.7234590121    0.2583776257    0.0068176667         -0.0076
C2029      C    0.6144520037    0.1402907487    0.7920322389         -0.0076
H2030      H    0.6157728507    0.1733172528    0.7782877036         -0.0076
C2031      C    0.6411931551    0.1372437280    0.7909778918         -0.0076
H2032      H    0.6466809428    0.1247104035    0.8040108105         -0.0076
H2033      H    0.6501093316    0.1523962380    0.7961287548         -0.0076
C2034      C    0.6488490363    0.1306015273    0.7652804250         -0.0076
H2035      H    0.6614187986    0.1425863285    0.7581717609         -0.0076
H2036      H    0.6579997943    0.1148940757    0.7660372095         -0.0076
C2037      C    0.6103468555    0.1122607569    0.7590356837         -0.0076
C2038      C    0.6274334295    0.1290131143    0.7484315610         -0.0076
C2039      C    0.6075241151    0.1577414678    0.7735275706         -0.0076
C2040      C    0.6027144770    0.1188882237    0.7846721495         -0.0076
H2041      H    0.5947295610    0.1107988668    0.7473623034         -0.0076
H2042      H    0.6187539257    0.0961985804    0.7596808861         -0.0076
H2043      H    0.5883723597    0.1602712131    0.7738042969         -0.0076
H2044      H    0.5834627200    0.1205844294    0.7852179295         -0.0076
H2045      H    0.6074754328    0.1060011729    0.7975787581         -0.0076
C2046      C    0.6151371236    0.1511274009    0.7479668528         -0.0076
H2047      H    0.6270318508    0.1635393826    0.7405213958         -0.0076
H2048      H    0.5996177147    0.1504952286    0.7360608049         -0.0076
C2009      C    0.8149960496    0.3569935096    0.2920297581         -0.0076
H2010      H    0.7808382237    0.3691575368    0.3033179009         -0.0076
C2011      C    0.8245378647    0.3795858262    0.2857926993         -0.0076
H2012      H    0.8438480538    0.3796253257    0.2869199524         -0.0076
H2013      H    0.8180343814    0.3915804540    0.2989608537         -0.0076
C2014      C    0.8168859781    0.3862369022    0.2600968407         -0.0076
H2015      H    0.8067314642    0.4014059361    0.2610068261         -0.0076
H2016      H    0.8325431742    0.3894583524    0.2489473284         -0.0076
C2017      C    0.8167450703    0.3474384935    0.2476212149         -0.0076
C2018      C    0.8020170696    0.3682687371    0.2484275323         -0.0076
C2019      C    0.7881039683    0.3575904318    0.2900884726         -0.0076
C2020      C    0.8243795058    0.3408081872    0.2732561062         -0.0076
H2021      H    0.8065072103    0.3341971613    0.2393902092         -0.0076
H2022      H    0.8324052542    0.3499097092    0.2362375405         -0.0076
H2023      H    0.7807096577    0.3415511282    0.2944128324         -0.0076
H2024      H    0.8177820505    0.3244093634    0.2772425701         -0.0076
H2025      H    0.8436880556    0.3401136394    0.2741361509         -0.0076
C2026      C    0.7804979554    0.3642020697    0.2645247543         -0.0076
H2027      H    0.7696077186    0.3789340185    0.2655421133         -0.0076
H2028      H    0.7694871771    0.3513144938    0.2566580097         -0.0076
C1989      C    0.7349231401    0.2161043745    0.5103565461         -0.0076
H1990      H    0.7568713068    0.2239540941    0.5414224520         -0.0076
C1991      C    0.7550129690    0.2052839365    0.4962840360          0.0436
H1992      H    0.7478665202    0.1935397416    0.4831881406         -0.0076
H1993      H    0.7664494409    0.1962459857    0.5088113000         -0.0076
C1994      C    0.7696099836    0.2224381339    0.4827595812         -0.0076
H1995      H    0.7880116911    0.2215833593    0.4888353483         -0.0076
H1996      H    0.7694407357    0.2188863822    0.4631994921         -0.0076
C1997      C    0.7340368845    0.2456725895    0.4788121168         -0.0076
C1998      C    0.7596797974    0.2452139635    0.4874050571         -0.0076
C1999      C    0.7455938555    0.2324202717    0.5282506879         -0.0076
C2000      C    0.7194791614    0.2285566778    0.4923033602         -0.0076
H2001      H    0.7263839983    0.2618234260    0.4819790665         -0.0076
H2002      H    0.7331762544    0.2425625907    0.4591766012         -0.0076
H2003      H    0.7315758257    0.2405193920    0.5386140520         -0.0076
H2004      H    0.7048899022    0.2365480806    0.5018985234         -0.0076
H2005      H    0.7116616194    0.2172582031    0.4791241237         -0.0076
C2006      C    0.7601083026    0.2494846322    0.5147917360         -0.0076
H2007      H    0.7783225223    0.2491625685    0.5215267594         -0.0076
H2008      H    0.7530069204    0.2657159526    0.5187290621         -0.0076
C1969      C    0.8150056208    0.6402889589    0.7285882004         -0.0076
H1970      H    0.7783171043    0.6355768153    0.7189044053         -0.0076
C1971      C    0.8195330089    0.6160387555    0.7326985017         -0.0076
H1972      H    0.8383230000    0.6124194890    0.7302497118         -0.0076
H1973      H    0.8097913125    0.6063806185    0.7192576221         -0.0076
C1974      C    0.8118775769    0.6093874232    0.7583931569         -0.0076
H1975      H    0.7984828312    0.5965549283    0.7572098234         -0.0076
H1976      H    0.8270118518    0.6025856428    0.7682200884         -0.0076
C1977      C    0.8211592431    0.6465132490    0.7733183954         -0.0076
C1978      C    0.8020229248    0.6290120623    0.7721887154         -0.0076
C1979      C    0.7887095986    0.6446696155    0.7323266678         -0.0076
C1980      C    0.8287960703    0.6531437961    0.7476843365         -0.0076
H1981      H    0.8145807118    0.6608622588    0.7830684155         -0.0076
H1982      H    0.8364782096    0.6404287225    0.7834264923         -0.0076
H1983      H    0.7848951417    0.6619967122    0.7295542889         -0.0076
H1984      H    0.8258584784    0.6706501178    0.7452169964         -0.0076
H1985      H    0.8477632434    0.6502260404    0.7455289869         -0.0076
C1986      C    0.7811010898    0.6380563650    0.7578890775         -0.0076
H1987      H    0.7670812540    0.6257964035    0.7566772337         -0.0076
H1988      H    0.7736690166    0.6522288975    0.7673065244         -0.0076
C1949      C    0.8440404863    0.5170007361    0.5220678637         -0.0076
H1950      H    0.8299218260    0.4982970226    0.5521564748         -0.0076
C1951      C    0.8216461698    0.5148561094    0.5067555449         -0.0076
H1952      H    0.8204788400    0.5283714064    0.4937753985         -0.0076
H1953      H    0.8060233836    0.5157124671    0.5184834524         -0.0076
C1954      C    0.8216372851    0.4932139299    0.4928975222         -0.0076
H1955      H    0.8060087038    0.4837451218    0.4980147110         -0.0076
H1956      H    0.8204611479    0.4963901958    0.4732935813         -0.0076
C1957      C    0.8653498076    0.4940682899    0.4912775670         -0.0076
C1958      C    0.8440363601    0.4802827695    0.4985510186         -0.0076
C1959      C    0.8450810566    0.4978208863    0.5397640690         -0.0076
C1960      C    0.8653534328    0.5156585228    0.5051012986         -0.0076
H1961      H    0.8817305714    0.4852349818    0.4951904201         -0.0076
H1962      H    0.8650168622    0.4972690456    0.4716432133         -0.0076
H1963      H    0.8610332761    0.4988694623    0.5510041141         -0.0076
H1964      H    0.8817332531    0.5171157331    0.5156006936         -0.0076
H1965      H    0.8650159500    0.5291840896    0.4920818988         -0.0076
C1966      C    0.8450773998    0.4762954648    0.5259736133         -0.0076
H1967      H    0.8299093611    0.4664932876    0.5317705973         -0.0076
H1968      H    0.8610287682    0.4670862146    0.5306296740         -0.0076
C1929      C    0.6144670331    0.8569868836    0.2285887854         -0.0076
H1930      H    0.6472842781    0.8389504366    0.2274955464         -0.0076
C1931      C    0.6266608630    0.8791726735    0.2280640761         -0.0076
H1932      H    0.6146694984    0.8915021092    0.2206399666         -0.0076
H1933      H    0.6421445572    0.8785745873    0.2161216225         -0.0076
C1934      C    0.6343175914    0.8858207669    0.2537593643         -0.0076
H1935      H    0.6534556315    0.8883946291    0.2540748235         -0.0076
H1936      H    0.6259861445    0.9013310089    0.2586101945         -0.0076
C1937      C    0.6007205196    0.8651134417    0.2710823050         -0.0076
C1938      C    0.6274472221    0.8682644553    0.2721898700         -0.0076
C1939      C    0.6316715120    0.8403323694    0.2391831936         -0.0076
C1940      C    0.5930856778    0.8584847015    0.2454470357         -0.0076
H1941      H    0.5952438372    0.8525388636    0.2840813540         -0.0076
H1942      H    0.5917365675    0.8802249449    0.2762595787         -0.0076
H1943      H    0.6233936285    0.8242061762    0.2398572477         -0.0076
H1944      H    0.5839711610    0.8427536705    0.2462274638         -0.0076
H1945      H    0.5804568509    0.8704262965    0.2383608237         -0.0076
C1946      C    0.6392803954    0.8469472707    0.2647449462         -0.0076
H1947      H    0.6585276924    0.8487352223    0.2652645541         -0.0076
H1948      H    0.6346232595    0.8339818962    0.2776058065         -0.0076
C1909      C    0.6566572320    0.9801690346    0.4987719350         -0.0076
H1910      H    0.6806263583    0.9959895920    0.4736676248         -0.0076
C1911      C    0.6354913099    0.9939503184    0.4910501894         -0.0076
H1912      H    0.6190465687    0.9852046070    0.4948863035         -0.0076
H1913      H    0.6360629608    0.9969545947    0.4713831996         -0.0076
C1914      C    0.6354883928    0.0157248651    0.5046463499         -0.0076
H1915      H    0.6360584350    0.0291179185    0.4914642116         -0.0076
H1916      H    0.6190374926    0.0173839137    0.5149762328         -0.0076
C1917      C    0.6552499299    0.9981392441    0.5398024618         -0.0076
C1918      C    0.6566536511    0.0171083762    0.5218510112         -0.0076
C1919      C    0.6791620601    0.9929691819    0.4932872246         -0.0076
C1920      C    0.6552495267    0.9764192275    0.5262354471         -0.0076
H1921      H    0.6702728258    0.9986499039    0.5523728146         -0.0076
H1922      H    0.6391770686    0.9994518894    0.5508080826         -0.0076
H1923      H    0.6947083975    0.9835044934    0.4986972852         -0.0076
H1924      H    0.6702692811    0.9665790143    0.5323386477         -0.0076
H1925      H    0.6391765014    0.9673466043    0.5307455835         -0.0076
C1926      C    0.6791564090    0.0146256831    0.5068185141         -0.0076
H1927      H    0.6806068351    0.0279919071    0.4936609526         -0.0076
H1928      H    0.6946915262    0.0154834157    0.5186850209         -0.0076
C1889      C    0.7349373051    0.7811775147    0.5102647072         -0.0076
H1890      H    0.7614704180    0.7784468641    0.4820497437         -0.0076
C1891      C    0.7516850973    0.7920978280    0.5283326423         -0.0076
H1892      H    0.7416124733    0.8017681223    0.5415004998         -0.0076
H1893      H    0.7635399730    0.8032833308    0.5187294322         -0.0076
C1894      C    0.7662836269    0.7749453517    0.5418580737         -0.0076
H1895      H    0.7851044537    0.7779486763    0.5387071152         -0.0076
H1896      H    0.7631881655    0.7764239840    0.5614914015         -0.0076
C1897      C    0.7333696922    0.7485959785    0.5378145028         -0.0076
C1898      C    0.7596965567    0.7520695803    0.5332158198         -0.0076
C1899      C    0.7496238496    0.7677736035    0.4923761203         -0.0076
C1900      C    0.7188099695    0.7657104185    0.5243232343         -0.0076
H1901      H    0.7280799368    0.7323103051    0.5317206112         -0.0076
H1902      H    0.7296335768    0.7495723455    0.5573690863         -0.0076
H1903      H    0.7380706253    0.7596669208    0.4791708478         -0.0076
H1904      H    0.7065824133    0.7575834317    0.5118015902         -0.0076
H1905      H    0.7081161181    0.7748753924    0.5374226987         -0.0076
C1906      C    0.7641392058    0.7507098958    0.5058350512         -0.0076
H1907      H    0.7829211160    0.7532387762    0.5019466251         -0.0076
H1908      H    0.7595015152    0.7344700508    0.4990555642         -0.0076
C1869      C    0.9587755690    0.6464787560    0.9309076965         -0.0076
H1870      H    0.9499321812    0.6441866123    0.8926271640         -0.0076
C1871      C    0.9543686036    0.6223145381    0.9357293517         -0.0076
H1872      H    0.9645227777    0.6169781821    0.9516352048         -0.0076
H1873      H    0.9603272144    0.6125948898    0.9201591757         -0.0076
C1874      C    0.9280703776    0.6181593287    0.9401723911         -0.0076
H1875      H    0.9214828709    0.6064561871    0.9267207200         -0.0076
H1876      H    0.9256606572    0.6108328841    0.9582022369         -0.0076
C1877      C    0.9239472282    0.6552910440    0.9573732165         -0.0076
C1878      C    0.9141554534    0.6394367548    0.9384543848         -0.0076
C1879      C    0.9442153713    0.6532892900    0.9087566487         -0.0076
C1880      C    0.9501825699    0.6594314378    0.9529398962         -0.0076
H1881      H    0.9143452569    0.6707724054    0.9565367069         -0.0076
H1882      H    0.9214664393    0.6486810124    0.9757370014         -0.0076
H1883      H    0.9469612367    0.6706149786    0.9048561278         -0.0076
H1884      H    0.9530847221    0.6768832100    0.9499913734         -0.0076
H1885      H    0.9602498542    0.6547973570    0.9691776552         -0.0076
C1886      C    0.9180563611    0.6491586586    0.9131839023         -0.0076
H1887      H    0.9112799562    0.6380741668    0.8991752093         -0.0076
H1888      H    0.9083325878    0.6645127771    0.9114042628         -0.0076
C1849      C    0.4587800386    0.8507940922    0.0897204966         -0.0076
H1850      H    0.4482454698    0.8427067677    0.1265341655         -0.0076
C1851      C    0.4531487589    0.8749845527    0.0926480248         -0.0076
H1852      H    0.4636169896    0.8845962345    0.0797580687         -0.0076
H1853      H    0.4578752420    0.8804487172    0.1110133254         -0.0076
C1854      C    0.4268502376    0.8791395148    0.0882065785         -0.0076
H1855      H    0.4190303463    0.8865867070    0.1044544593         -0.0076
H1856      H    0.4247541944    0.8907412986    0.0731950468         -0.0076
C1857      C    0.4256481009    0.8479623859    0.0595487377         -0.0076
C1858      C    0.4141602417    0.8578381630    0.0821742514         -0.0076
C1859      C    0.4437466395    0.8379867399    0.1078473468         -0.0076
C1860      C    0.4518834106    0.8438217887    0.0639820026         -0.0076
H1861      H    0.4169531548    0.8325904285    0.0547948848         -0.0076
H1862      H    0.4235374116    0.8589634951    0.0439828037         -0.0076
H1863      H    0.4473530703    0.8205116630    0.1061479897         -0.0076
H1864      H    0.4556924371    0.8264794448    0.0613411331         -0.0076
H1865      H    0.4623202895    0.8528451975    0.0505432240         -0.0076
C1866      C    0.4175878072    0.8421192497    0.1034211867         -0.0076
H1867      H    0.4095932323    0.8488232503    0.1199909455         -0.0076
H1868      H    0.4087249637    0.8266192478    0.0996027559         -0.0076
C1829      C    0.1697736411    0.7520672400    0.9874095571         -0.0076
H1830      H    0.1722827044    0.7738767087    0.9565301797         -0.0076
C1831      C    0.1536319990    0.7672648764    0.0018294157         -0.0076
H1832      H    0.1431962749    0.7578826133    0.0149567135         -0.0076
H1833      H    0.1411894354    0.7753748506    0.9895310551         -0.0076
C1834      C    0.1682197991    0.7844255536    0.0153541687         -0.0076
H1835      H    0.1627356713    0.8007235213    0.0095074703         -0.0076
H1836      H    0.1647494501    0.7832441601    0.0349458738         -0.0076
C1837      C    0.2014056564    0.7582834071    0.0186424786         -0.0076
C1838      C    0.1945315590    0.7811756907    0.0103613899         -0.0076
C1839      C    0.1840928061    0.7657633271    0.9694806241         -0.0076
C1840      C    0.1868487999    0.7411670101    0.0051510176         -0.0076
H1841      H    0.2202153841    0.7554311821    0.0152219345         -0.0076
H1842      H    0.1985699609    0.7565915251    0.0382968981         -0.0076
H1843      H    0.1959265092    0.7552981393    0.9588694259         -0.0076
H1844      H    0.1987182070    0.7301582513    0.9953021981         -0.0076
H1845      H    0.1770470039    0.7312933162    0.0183491460         -0.0076
C1846      C    0.1986057725    0.7828286143    0.9829397989         -0.0076
H1847      H    0.1937198965    0.7990950514    0.9764263150         -0.0076
H1848      H    0.2173560063    0.7804956452    0.9787547393         -0.0076
C1809      C    0.4141484806    0.1394364347    0.9384485079         -0.0076
H1810      H    0.4085591176    0.1688956491    0.9175596900         -0.0076
C1811      C    0.4250072614    0.1514529794    0.9600855120         -0.0076
H1812      H    0.4227960859    0.1418366824    0.9767454463         -0.0076
H1813      H    0.4159454523    0.1670118818    0.9629367181         -0.0076
C1814      C    0.4513045254    0.1556111871    0.9556399180         -0.0076
H1815      H    0.4547882016    0.1731553393    0.9563706903         -0.0076
H1816      H    0.4616583240    0.1479835132    0.9701809509         -0.0076
C1817      C    0.4535198912    0.1220764829    0.9306053192         -0.0076
C1818      C    0.4587682618    0.1464810817    0.9309028027         -0.0076
C1819      C    0.4177380398    0.1532780212    0.9156208249         -0.0076
C1820      C    0.4272862063    0.1179317849    0.9350440480         -0.0076
H1821      H    0.4586299034    0.1150533914    0.9130209173         -0.0076
H1822      H    0.4639095205    0.1137988390    0.9446677090         -0.0076
H1823      H    0.4101637144    0.1450434249    0.8997202615         -0.0076
H1824      H    0.4198938648    0.1089343858    0.9195782562         -0.0076
H1825      H    0.4251274087    0.1076782884    0.9512303525         -0.0076
C1826      C    0.4438983915    0.1574073092    0.9112004520         -0.0076
H1827      H    0.4472175899    0.1749980801    0.9110393000         -0.0076
H1828      H    0.4487987328    0.1511353819    0.8932002793         -0.0076
C1789      C    0.2727991155    0.0171055910    0.9987717962         -0.0076
H1790      H    0.2469676657    0.0271994511    0.0255503413         -0.0076
C1791      C    0.2560768492    0.0010095644    0.9864252166         -0.0076
H1792      H    0.2614899413    0.9983795031    0.9674890222         -0.0076
H1793      H    0.2381248106    0.0076418328    0.9860555596         -0.0076
C1794      C    0.2560721239    0.9792392649    0.0000298831         -0.0076
H1795      H    0.2381161548    0.9754855415    0.0061506557         -0.0076
H1796      H    0.2614797368    0.9662056688    0.9875899136         -0.0076
C1797      C    0.2975468912    0.9855319983    0.0125616319         -0.0076
C1798      C    0.2728029531    0.9801680002    0.0218543789         -0.0076
C1799      C    0.2647597522    0.0202019470    0.0251093432         -0.0076
C1800      C    0.2975470225    0.0072484378    0.9989874547         -0.0076
H1801      H    0.3099689682    0.9863780881    0.0278414534         -0.0076
H1802      H    0.3037558205    0.9726246597    0.0003563603         -0.0076
H1803      H    0.2764794038    0.0316596910    0.0345028437         -0.0076
H1804      H    0.3099673412    0.0184431080    0.0077955350         -0.0076
H1805      H    0.3037488910    0.0047283779    0.9802907247         -0.0076
C1806      C    0.2647620538    0.9985445968    0.0386389346         -0.0076
H1807      H    0.2469676366    0.9951918513    0.0455330946         -0.0076
H1808      H    0.2764873079    0.9996727337    0.0544744962         -0.0076
C1769      C    0.9141569922    0.3578398027    0.0821651846         -0.0076
H1770      H    0.9242908526    0.3631055447    0.0445992381         -0.0076
C1771      C    0.9262103735    0.3785685991    0.0912272663         -0.0076
H1772      H    0.9179065588    0.3841029448    0.1081589610         -0.0076
H1773      H    0.9241354237    0.3916417943    0.0778093130         -0.0076
C1774      C    0.9525100949    0.3744242930    0.0956735957         -0.0076
H1775      H    0.9629823889    0.3855216194    0.0843759456         -0.0076
H1776      H    0.9567724899    0.3779831578    0.1147317424         -0.0076
C1777      C    0.9437463955    0.3359078651    0.1057299722         -0.0076
C1778      C    0.9587767563    0.3507993449    0.0897158534         -0.0076
C1779      C    0.9263252928    0.3505973896    0.0586881178         -0.0076
C1780      C    0.9175111956    0.3400469724    0.1012942757         -0.0076
H1781      H    0.9477982034    0.3188048312    0.1018167623         -0.0076
H1782      H    0.9478315768    0.3387256825    0.1249844101         -0.0076
H1783      H    0.9180882314    0.3356834063    0.0517423937         -0.0076
H1784      H    0.9090598999    0.3249193272    0.0952684481         -0.0076
H1785      H    0.9090499494    0.3448493859    0.1184224259         -0.0076
C1786      C    0.9524847449    0.3464714685    0.0631180644         -0.0076
H1787      H    0.9629465674    0.3570167168    0.0511528359         -0.0076
H1788      H    0.9567181146    0.3295915812    0.0582948286         -0.0076
C1749      C    0.0854275626    0.4802802360    0.0220740246         -0.0076
H1750      H    0.0966991918    0.4994477168    0.0530635036         -0.0076
C1751      C    0.1086784621    0.4832580020    0.0083815740         -0.0076
H1752      H    0.1112843671    0.4698114756    0.9955354806         -0.0076
H1753      H    0.1235085155    0.4829576730    0.0211902238         -0.0076
C1754      C    0.1086827737    0.5049003035    0.9945237864         -0.0076
H1755      H    0.1235163862    0.5149252543    0.0007219381         -0.0076
H1756      H    0.1112955170    0.5017930368    0.9750543423         -0.0076
C1757      C    0.0652519876    0.5024550956    0.9898112340         -0.0076
C1758      C    0.0854243254    0.5169980169    0.9985568153         -0.0076
C1759      C    0.0823917269    0.4993858212    0.0396253567         -0.0076
C1760      C    0.0652529765    0.4808649332    0.0036351047         -0.0076
H1761      H    0.0482841886    0.5106796466    0.9925404933         -0.0076
H1762      H    0.0670272610    0.4992926578    0.9702517328         -0.0076
H1763      H    0.0657866955    0.4977429967    0.0497099972         -0.0076
H1764      H    0.0482884609    0.4787990995    0.0129511668         -0.0076
H1765      H    0.0670346937    0.4673779416    0.9906910584         -0.0076
C1766      C    0.0823913303    0.5209111839    0.0258347847         -0.0076
H1767      H    0.0967063461    0.5312516350    0.0326779796         -0.0076
H1768      H    0.0657860339    0.5295261398    0.0293353511         -0.0076
C1729      C    0.1697733650    0.2452094536    0.0332187135         -0.0076
H1730      H    0.1999673923    0.2662822478    0.0278613463         -0.0076
C1731      C    0.1825781111    0.2304696210    0.0513283681         -0.0076
H1732      H    0.1697737739    0.2223639249    0.0632288465         -0.0076
H1733      H    0.1942104721    0.2401878594    0.0629970096         -0.0076
C1734      C    0.1971722966    0.2133132985    0.0378040387         -0.0076
H1735      H    0.2157684687    0.2148470841    0.0430215739         -0.0076
H1736      H    0.1913421686    0.1970083895    0.0432476289         -0.0076
C1737      C    0.1684021222    0.2139572772    0.0037948969         -0.0076
C1738      C    0.1945256938    0.2160979174    0.0102653509         -0.0076
C1739      C    0.1881868796    0.2560580746    0.0169052346         -0.0076
C1740      C    0.1538460810    0.2310713066    0.0172910541         -0.0076
H1741      H    0.1659191101    0.2159492747    0.9841175980         -0.0076
H1742      H    0.1620107533    0.1976674145    0.0085879767         -0.0076
H1743      H    0.1795196591    0.2667326624    0.0036310609         -0.0076
H1744      H    0.1444264824    0.2412182794    0.0040487948         -0.0076
H1745      H    0.1404986141    0.2229690505    0.0285427231         -0.0076
C1746      C    0.2026975669    0.2389882847    0.0034505832         -0.0076
H1747      H    0.2214092071    0.2410522611    0.0079889942         -0.0076
H1748      H    0.2009422678    0.2415177938    0.9837653801         -0.0076
C1709      C    0.5152994014    0.1394400254    0.5821715079         -0.0076
H1710      H    0.5145229149    0.1697332014    0.5620062208         -0.0076
C1711      C    0.5004043158    0.1272025858    0.5634435400         -0.0076
H1712      H    0.5039759838    0.1096916496    0.5645682814         -0.0076
H1713      H    0.5050793914    0.1324687249    0.5449920546         -0.0076
C1714      C    0.4741054733    0.1313552864    0.5678856195         -0.0076
H1715      H    0.4662339016    0.1386029043    0.5515516522         -0.0076
H1716      H    0.4651106371    0.1158252050    0.5711286967         -0.0076
C1717      C    0.4819763139    0.1358498700    0.6120163195         -0.0076
C1718      C    0.4706798349    0.1464833061    0.5897201491         -0.0076
C1719      C    0.5096937160    0.1637098477    0.5801279917         -0.0076
C1720      C    0.5082104617    0.1317057002    0.6075798948         -0.0076
H1721      H    0.4798660618    0.1463701874    0.6280016109         -0.0076
H1722      H    0.4731405272    0.1204020217    0.6161100146         -0.0076
H1723      H    0.5200951996    0.1729549376    0.5934171344         -0.0076
H1724      H    0.5186023458    0.1402488852    0.6214485092         -0.0076
H1725      H    0.5119215829    0.1142780337    0.6095447457         -0.0076
C1726      C    0.4835335109    0.1678359648    0.5845529844         -0.0076
H1727      H    0.4758638473    0.1758213548    0.5685395252         -0.0076
H1728      H    0.4814615182    0.1790391293    0.5999545923         -0.0076
C1689      C    0.3020115030    0.1290070788    0.7721890269         -0.0076
H1690      H    0.2895370842    0.1622034237    0.7754986895         -0.0076
C1691      C    0.3280214320    0.1355643445    0.7720400446         -0.0076
H1692      H    0.3389531482    0.1219628369    0.7783428392         -0.0076
H1693      H    0.3309459758    0.1491714960    0.7845977404         -0.0076
C1694      C    0.3356762652    0.1422175789    0.7463458155         -0.0076
H1695      H    0.3422533959    0.1590000982    0.7466461455         -0.0076
H1696      H    0.3502704639    0.1317954079    0.7403740069         -0.0076
C1697      C    0.3063043745    0.1167328438    0.7288128580         -0.0076
C1698      C    0.3149947172    0.1402863143    0.7285894330         -0.0076
C1699      C    0.2874272599    0.1483124935    0.7631496734         -0.0076
C1700      C    0.2986722851    0.1100980001    0.7544470291         -0.0076
H1701      H    0.2913866835    0.1148392405    0.7162745411         -0.0076
H1702      H    0.3203321295    0.1058146215    0.7225103315         -0.0076
H1703      H    0.2686287402    0.1440870878    0.7629887311         -0.0076
H1704      H    0.2801203338    0.1050424754    0.7541266993         -0.0076
H1705      H    0.3090517307    0.0960123242    0.7604076959         -0.0076
C1706      C    0.2950421276    0.1549236069    0.7375885889         -0.0076
H1707      H    0.3008002086    0.1719703192    0.7377301380         -0.0076
H1708      H    0.2798802181    0.1538424981    0.7252405226         -0.0076
C1669      C    0.0152994045    0.3578379093    0.4384562111         -0.0076
H1670      H    0.0164707560    0.3242054577    0.4502366995         -0.0076
C1671      C    0.0007839526    0.3652977011    0.4603731961         -0.0076
H1672      H    0.0036730555    0.3826933982    0.4636889719         -0.0076
H1673      H    0.0064262799    0.3565630368    0.4767767836         -0.0076
C1674      C    0.9744851894    0.3611454436    0.4559301052         -0.0076
H1675      H    0.9675809911    0.3504291689    0.4702155647         -0.0076
H1676      H    0.9648078826    0.3765595281    0.4571278382         -0.0076
C1677      C    0.9806279317    0.3661670331    0.4115787871         -0.0076
C1678      C    0.9706793758    0.3507977953    0.4309067965         -0.0076
C1679      C    0.0106613553    0.3336024025    0.4343554726         -0.0076
C1680      C    0.0068621641    0.3703096288    0.4160165105         -0.0076
H1681      H    0.9782187990    0.3591466187    0.3933884273         -0.0076
H1682      H    0.9710761960    0.3816824735    0.4119225245         -0.0076
H1683      H    0.0208138903    0.3277565059    0.4186639758         -0.0076
H1684      H    0.0169552339    0.3652650303    0.3999439453         -0.0076
H1685      H    0.0098577560    0.3878027441    0.4184889470         -0.0076
C1686      C    0.9845007913    0.3294778988    0.4299308663         -0.0076
H1687      H    0.9778110715    0.3181182210    0.4437062250         -0.0076
H1688      H    0.9821792346    0.3216749693    0.4121295718         -0.0076
C1649      C    0.1274383729    0.3682648453    0.2721949999         -0.0076
H1650      H    0.1310496579    0.3336584413    0.2787683537         -0.0076
C1651      C    0.1005438508    0.3673228812    0.2705055613         -0.0076
H1652      H    0.0929797568    0.3832518891    0.2749873800         -0.0076
H1653      H    0.0935867314    0.3555975552    0.2837300624         -0.0076
C1654      C    0.0928909850    0.3606728626    0.2448096707         -0.0076
H1655      H    0.0822818765    0.3457739268    0.2457760488         -0.0076
H1656      H    0.0816652687    0.3734252744    0.2370157273         -0.0076
C1657      C    0.1287891896    0.3780572966    0.2278363839         -0.0076
C1658      C    0.1144609282    0.3569895124    0.2285923209         -0.0076
C1659      C    0.1372748818    0.3458440641    0.2656690760         -0.0076
C1660      C    0.1364187448    0.3846900283    0.2534720380         -0.0076
H1661      H    0.1444579109    0.3759052573    0.2163719115         -0.0076
H1662      H    0.1182565065    0.3911499267    0.2197221612         -0.0076
H1663      H    0.1565991443    0.3460072835    0.2666586777         -0.0076
H1664      H    0.1557205074    0.3856996299    0.2542260277         -0.0076
H1665      H    0.1295315852    0.4009498841    0.2576219628         -0.0076
C1666      C    0.1296638778    0.3392358649    0.2401058274         -0.0076
H1667      H    0.1197929648    0.3238982193    0.2409956083         -0.0076
H1668      H    0.1453554929    0.3362571961    0.2289062712         -0.0076
C1629      C    0.2596827233    0.2520662393    0.5332221168         -0.0076
H1630      H    0.2516455328    0.2708050052    0.5655825630         -0.0076
C1631      C    0.2757848492    0.2695778264    0.5225166788         -0.0076
H1632      H    0.2884814386    0.2621786811    0.5099368403         -0.0076
H1633      H    0.2859381670    0.2774404597    0.5370524471         -0.0076
C1634      C    0.2611953282    0.2867381958    0.5089934188         -0.0076
H1635      H    0.2643892015    0.3027886844    0.5170784665         -0.0076
H1636      H    0.2669257790    0.2875402996    0.4899506535         -0.0076
C1637      C    0.2312648607    0.2586953885    0.4989520189         -0.0076
C1638      C    0.2349232290    0.2811741265    0.5102712083         -0.0076
C1639      C    0.2421909033    0.2630420432    0.5504820813         -0.0076
C1640      C    0.2458231833    0.2415796409    0.5124428216         -0.0076
H1641      H    0.2125513435    0.2542060633    0.4996662440         -0.0076
H1642      H    0.2364239178    0.2589507236    0.4797163482         -0.0076
H1643      H    0.2303161456    0.2508715939    0.5584365536         -0.0076
H1644      H    0.2340507433    0.2289344192    0.5195854611         -0.0076
H1645      H    0.2579481526    0.2336533999    0.4996640298         -0.0076
C1646      C    0.2276773618    0.2801074171    0.5370237086         -0.0076
H1647      H    0.2302081421    0.2960247518    0.5456888879         -0.0076
H1648      H    0.2088871827    0.2760702729    0.5385524928         -0.0076
C1609      C    0.9706929957    0.6464787214    0.5897158180         -0.0076
H1610      H    0.9778260292    0.6360982660    0.6266790360         -0.0076
C1611      C    0.9744316339    0.6237856020    0.5789790266         -0.0076
H1612      H    0.9647726507    0.6222334322    0.5617727417         -0.0076
H1613      H    0.9674770209    0.6113872821    0.5914134510         -0.0076
C1614      C    0.0007292300    0.6196274816    0.5745354297         -0.0076
H1615      H    0.0063203442    0.6052440788    0.5848507533         -0.0076
H1616      H    0.0036337199    0.6160842416    0.5552036514         -0.0076
C1617      C    0.0069013746    0.6590941149    0.5674883277         -0.0076
C1618      C    0.0153126796    0.6394332311    0.5821704956         -0.0076
C1619      C    0.9845407105    0.6480199104    0.6135334671         -0.0076
C1620      C    0.9806664483    0.6632373613    0.5719209262         -0.0076
H1621      H    0.0170079889    0.6736093336    0.5726225930         -0.0076
H1622      H    0.0099165659    0.6563130893    0.5480182663         -0.0076
H1623      H    0.9822547081    0.6641843041    0.6216778799         -0.0076
H1624      H    0.9782690721    0.6797246284    0.5791661277         -0.0076
H1625      H    0.9711333723    0.6624326238    0.5545752738         -0.0076
C1626      C    0.0106995129    0.6438878904    0.6091065334         -0.0076
H1627      H    0.0164778919    0.6299853196    0.6201293072         -0.0076
H1628      H    0.0208834004    0.6580822571    0.6151298473         -0.0076
C1589      C    0.1144632921    0.6402829438    0.7920357715         -0.0076
H1590      H    0.1334496640    0.6702090511    0.7848962851         -0.0076
C1591      C    0.1368362450    0.6264285032    0.7930943725         -0.0076
H1592      H    0.1337004620    0.6118049710    0.8040693951         -0.0076
H1593      H    0.1510978721    0.6355675771    0.8018865960         -0.0076
C1594      C    0.1444946107    0.6197830984    0.7673987307         -0.0076
H1595      H    0.1624113915    0.6257523086    0.7639326216         -0.0076
H1596      H    0.1450218470    0.6019816613    0.7660988573         -0.0076
C1597      C    0.1027248086    0.6203933132    0.7539839684         -0.0076
C1598      C    0.1274461551    0.6290042632    0.7484358880         -0.0076
C1599      C    0.1195163128    0.6603777553    0.7764742968         -0.0076
C1600      C    0.0950898259    0.6270216114    0.7796193393         -0.0076
H1601      H    0.0900519487    0.6267912768    0.7407002239         -0.0076
H1602      H    0.1024436018    0.6026023922    0.7524337616         -0.0076
H1603      H    0.1037329220    0.6706526799    0.7753121992         -0.0076
H1604      H    0.0787805089    0.6365767357    0.7785544253         -0.0076
H1605      H    0.0911632953    0.6124037798    0.7903314486         -0.0076
C1606      C    0.1271286190    0.6537622407    0.7509138249         -0.0076
H1607      H    0.1447037871    0.6604251862    0.7471303712         -0.0076
H1608      H    0.1149722865    0.6608740557    0.7375676621         -0.0076
C1569      C    0.1566557419    0.4801621917    0.4987761605         -0.0076
H1570      H    0.1864280423    0.4719717210    0.5217376124         -0.0076
C1571      C    0.1703169380    0.4972962036    0.4843417282         -0.0076
H1572      H    0.1623289051    0.4994665644    0.4663254769         -0.0076
H1573      H    0.1885442724    0.4919010306    0.4814884314         -0.0076
C1574      C    0.1703267112    0.5190680476    0.4979432987         -0.0076
H1575      H    0.1885603687    0.5240597174    0.5015787254         -0.0076
H1576      H    0.1623458740    0.5316428773    0.4864213983         -0.0076
C1577      C    0.1314392297    0.5100283596    0.5159937797         -0.0076
C1578      C    0.1566605536    0.5171015952    0.5218551125         -0.0076
C1579      C    0.1682257313    0.4777383922    0.5237675174         -0.0076
C1580      C    0.1314336039    0.4883106769    0.5024220930         -0.0076
H1581      H    0.1211866122    0.5084081055    0.5328306552         -0.0076
H1582      H    0.1227064861    0.5224238387    0.5048132424         -0.0076
H1583      H    0.1587604607    0.4655569717    0.5346167995         -0.0076
H1584      H    0.1211796939    0.4763413594    0.5127881938         -0.0076
H1585      H    0.1227053726    0.4903187726    0.4847503048         -0.0076
C1586      C    0.1682279566    0.4993967827    0.5372950246         -0.0076
H1587      H    0.1864330869    0.5039810347    0.5417169292         -0.0076
H1588      H    0.1587578893    0.4975451104    0.5545860852         -0.0076
C1549      C    0.4706910880    0.8507924086    0.4309020503         -0.0076
H1550      H    0.4766754137    0.8200454946    0.4491910904         -0.0076
C1551      C    0.4850841893    0.8444304526    0.4084720729         -0.0076
H1552      H    0.4792149486    0.8538458512    0.3926337509         -0.0076
H1553      H    0.4823295582    0.8271830670    0.4042039457         -0.0076
C1554      C    0.5113838871    0.8485748946    0.4129183992         -0.0076
H1555      H    0.5211764620    0.8333032803    0.4107709294         -0.0076
H1556      H    0.5180813898    0.8599691854    0.3991991924         -0.0076
C1557      C    0.5013020425    0.8789983105    0.4407146038         -0.0076
C1558      C    0.5153110216    0.8578343847    0.4384498912         -0.0076
C1559      C    0.4795064823    0.8374459569    0.4525560274         -0.0076
C1560      C    0.4750671666    0.8748609124    0.4362748667         -0.0076
H1561      H    0.5037115947    0.8860173752    0.4589055560         -0.0076
H1562      H    0.5077973801    0.8909804554    0.4275274869         -0.0076
H1563      H    0.4695320396    0.8416916937    0.4689950670         -0.0076
H1564      H    0.4649741128    0.8799075097    0.4523466575         -0.0076
H1565      H    0.4690159892    0.8848577888    0.4209627955         -0.0076
C1566      C    0.5056665221    0.8415757669    0.4569777426         -0.0076
H1567      H    0.5153334128    0.8261487635    0.4557134668         -0.0076
H1568      H    0.5081641099    0.8477973621    0.4755175903         -0.0076
C1529      C    0.3150068643    0.8569855890    0.2920341125         -0.0076
H1530      H    0.2908010658    0.8300050369    0.2875018895         -0.0076
C1531      C    0.2953742146    0.8740053055    0.2932482721         -0.0076
H1532      H    0.3015091145    0.8884031155    0.3031997105         -0.0076
H1533      H    0.2801686869    0.8674646994    0.3031803574         -0.0076
C1534      C    0.2877159983    0.8806525337    0.2675531765         -0.0076
H1535      H    0.2688553451    0.8772829131    0.2652272851         -0.0076
H1536      H    0.2901885928    0.8982297530    0.2652299812         -0.0076
C1537      C    0.3281497460    0.8733153945    0.2523854653         -0.0076
C1538      C    0.3020245867    0.8682655873    0.2484344760         -0.0076
C1539      C    0.3058196636    0.8372918091    0.2779126934         -0.0076
C1540      C    0.3357849158    0.8666860594    0.2780204377         -0.0076
H1541      H    0.3389037174    0.8645906430    0.2389571027         -0.0076
H1542      H    0.3314055985    0.8907522585    0.2497779112         -0.0076
H1543      H    0.3195636997    0.8247741021    0.2766713359         -0.0076
H1544      H    0.3501758394    0.8548040196    0.2768107058         -0.0076
H1545      H    0.3426858401    0.8809503759    0.2876754531         -0.0076
C1546      C    0.2982082956    0.8439082105    0.2523522147         -0.0076
H1547      H    0.2795500308    0.8397910958    0.2497357122         -0.0076
H1548      H    0.3083273558    0.8345536713    0.2389261526         -0.0076
C1509      C    0.3440411376    0.9802775595    0.4985525024         -0.0076
H1510      H    0.3186709551    0.9957864871    0.4747027740         -0.0076
C1511      C    0.3270094064    0.9792339066    0.5200944329         -0.0076
H1512      H    0.3321376853    0.9660393776    0.5324492427         -0.0076
H1513      H    0.3091130097    0.9756661637    0.5136629135         -0.0076
C1514      C    0.3270007008    0.0008750992    0.5339543839         -0.0076
H1515      H    0.3090984755    0.0076317898    0.5341350137         -0.0076
H1516      H    0.3321215280    0.9980184944    0.5529351506         -0.0076
C1517      C    0.3686979484    0.0069286940    0.5220788046         -0.0076
C1518      C    0.3440382147    0.0169956953    0.5220690172         -0.0076
C1519      C    0.3363930374    0.9989224388    0.4818995962         -0.0076
C1520      C    0.3687020071    0.9853386478    0.5082547081         -0.0076
H1521      H    0.3813363699    0.0181089377    0.5135802927         -0.0076
H1522      H    0.3746243294    0.0041809501    0.5408294674         -0.0076
H1523      H    0.3483413361    0.0001300908    0.4662510413         -0.0076
H1524      H    0.3813404978    0.9862280953    0.4931701972         -0.0076
H1525      H    0.3746232241    0.9722651003    0.5203923560         -0.0076
C1526      C    0.3363913166    0.0204478590    0.4956900551         -0.0076
H1527      H    0.3186648059    0.0275893576    0.4950903418         -0.0076
H1528      H    0.3483431477    0.0319137611    0.4866246573         -0.0076
C1489      C    0.2596962902    0.7452008636    0.4874032529         -0.0076
H1490      H    0.2288946083    0.7488580321    0.4644249624         -0.0076
C1491      C    0.2654451502    0.7224349329    0.4778730968         -0.0076
H1492      H    0.2842769802    0.7189902508    0.4802944016         -0.0076
H1493      H    0.2617000515    0.7214744163    0.4583196834         -0.0076
C1494      C    0.2508525892    0.7052756349    0.4913945760         -0.0076
H1495      H    0.2401453304    0.6961282729    0.4782903714         -0.0076
H1496      H    0.2627149158    0.6936288329    0.5002735650         -0.0076
C1497      C    0.2505123397    0.7287242711    0.5281480493         -0.0076
C1498      C    0.2349406074    0.7160911762    0.5103557055         -0.0076
C1499      C    0.2333218393    0.7492969604    0.4838545004         -0.0076
C1500      C    0.2650705605    0.7458388491    0.5146552614         -0.0076
H1501      H    0.2395734996    0.7367402076    0.5419644720         -0.0076
H1502      H    0.2623754226    0.7175334480    0.5377333354         -0.0076
H1503      H    0.2286179484    0.7655334832    0.4905929201         -0.0076
H1504      H    0.2610716987    0.7620092055    0.5220396576         -0.0076
H1505      H    0.2838940156    0.7428316751    0.5177805860         -0.0076
C1506      C    0.2188109967    0.7322285996    0.4973112466         -0.0076
H1507      H    0.2074598982    0.7236291157    0.4843071837         -0.0076
H1508      H    0.2071974607    0.7403241472    0.5104698258         -0.0076
loop_
_geom_bond_atom_site_label_1
_geom_bond_atom_site_label_2
_geom_bond_distance
_geom_bond_site_symmetry_2
_ccdc_geom_bond_type
C1           C2 1.408       .   S
C1          N36 1.361       .   D
C1          C53 1.475       .   S
C2           C3 1.401       .   D
C2          H56 1.083       .   S
C3           C4 1.400       .   S
C3          H57 1.083       .   S
C5           C4 1.407       .   D
C12          C4 1.404       .   S
C5           C6 1.406       .   S
H58          C5 1.083       .   S
C6           C7 1.405       .   D
C6          H59 1.083       .   S
C7           C8 1.406       .   S
C7          C11 1.404       .   S
C8          H60 1.083       .   S
C8           C9 1.406       .   D
C9          C10 1.403       .   S
C9          H61 1.083       .   S
C10         N37 1.355       .   D
C10         C14 1.462       .   S
C11         C12 1.413       .   D
C11         N37 1.357       .   S
N36         C12 1.367       .   S
C13         H62 1.083       .   S
C13         C50 1.476       .   S
N40         C13 1.299       .   D
C14         C15 1.399       .   D
C14         C19 1.400       .   S
C15         C16 1.396       .   S
C15         H63 1.083       .   S
C16         C17 1.404       .   D
C16         H64 1.083       .   S
C17         C20 1.473       .   S
C17         C18 1.406       .   S
C18         C19 1.397       .   D
C18         H65 1.083       .   S
C19         H66 1.083       .   S
C20         H67 1.082       .   S
C20         N41 1.300       .   D
C21         C84 1.467       .   S
C21         N38 1.357       .   D
C21         C22 1.405       .   S
C22         C23 1.403       .   D
C22         H68 1.083       .   S
C23         H69 1.083       .   S
C23         C24 1.403       .   S
C24         C32 1.404       .   D
C25         C24 1.405       .   S
C25         C26 1.404       .   D
C25         H70 1.083       .   S
C26         H71 1.083       .   S
C27         C26 1.406       .   S
C27         C28 1.401       .   S
C27         C31 1.405       .   D
C28         C29 1.402       .   D
C28         H72 1.083       .   S
C29         H73 1.083       .   S
C29         C30 1.406       .   S
C30         N39 1.361       .   D
C30         C44 1.470       .   S
C31         C32 1.414       .   S
C31         N39 1.364       .   S
C32         N38 1.361       .   S
C33         H74 1.083       .   S
C33         C87 1.474       .   S
C33         N42 1.300       .   D
C34         N43 1.300       .   D
C34         C47 1.473       .   S
C34         H75 1.084       .   S
Cu35        N38 1.903       .   S
Cu35        N39 1.922       .   S
Cu35        N37 1.902       .   S
N36        Cu35 1.924       .   S
N40       C1549 1.420       .   S
N41       C1509 1.458       .   S
N42       C1489 1.467       .   S
N43       C1529 1.630       .   S
C44         C49 1.400       .   D
C45         C44 1.403       .   S
C45         H76 1.084       .   S
C45         C46 1.395       .   D
C46         C47 1.405       .   S
C46         H77 1.083       .   S
C48         C47 1.404       .   D
C48         H78 1.083       .   S
C48         C49 1.397       .   S
C49         H79 1.079       .   S
C50         C55 1.407       .   S
C50         C51 1.403       .   D
C51         C52 1.397       .   S
C51         H80 1.083       .   S
C52         C53 1.404       .   D
C52         H81 1.083       .   S
C53         C54 1.400       .   S
C54         H82 1.077       .   S
C54         C55 1.397       .   D
C55         H83 1.083       .   S
C84         C85 1.398       .   S
C89         C84 1.474       .   D
C85         C86 1.402       .   D
C85         H90 1.083       .   S
C86         H91 1.083       .   S
C87         C86 1.410       .   S
C87         C88 1.402       .   D
C88         H92 1.084       .   S
C88         C89 1.389       .   S
C89         H93 1.083       .   S
C94         C95 1.408       .   S
C94        N129 1.361       .   D
C94        C146 1.475       .   S
C95         C96 1.401       .   D
C95        H149 1.083       .   S
C96         C97 1.400       .   S
C96        H150 1.083       .   S
C98         C97 1.407       .   D
C105        C97 1.404       .   S
C98         C99 1.406       .   S
H151        C98 1.083       .   S
C99        C100 1.405       .   D
C99        H152 1.083       .   S
C100       C101 1.406       .   S
C100       C104 1.404       .   S
C101       H153 1.083       .   S
C101       C102 1.406       .   D
C102       C103 1.403       .   S
C102       H154 1.083       .   S
C103       N130 1.355       .   D
C103       C107 1.462       .   S
C104       C105 1.413       .   D
C104       N130 1.357       .   S
N129       C105 1.367       .   S
C106       H155 1.083       .   S
C106       C143 1.476       .   S
N133       C106 1.299       .   D
C107       C108 1.399       .   D
C107       C112 1.400       .   S
C108       C109 1.396       .   S
C108       H156 1.083       .   S
C109       C110 1.404       .   D
C109       H157 1.083       .   S
C110       C113 1.473       .   S
C110       C111 1.406       .   S
C111       C112 1.397       .   D
C111       H158 1.083       .   S
C112       H159 1.083       .   S
C113       H160 1.082       .   S
C113       N134 1.300       .   D
C114       C177 1.467       .   S
C114       N131 1.357       .   D
C114       C115 1.405       .   S
C115       C116 1.403       .   D
C115       H161 1.083       .   S
C116       H162 1.083       .   S
C116       C117 1.403       .   S
C117       C125 1.404       .   D
C118       C117 1.405       .   S
C118       C119 1.404       .   D
C118       H163 1.083       .   S
C119       H164 1.083       .   S
C120       C119 1.406       .   S
C120       C121 1.401       .   S
C120       C124 1.405       .   D
C121       C122 1.402       .   D
C121       H165 1.083       .   S
C122       H166 1.083       .   S
C122       C123 1.406       .   S
C123       N132 1.361       .   D
C123       C137 1.470       .   S
C124       C125 1.414       .   S
C124       N132 1.364       .   S
C125       N131 1.361       .   S
C126       H167 1.083       .   S
C126       C180 1.474       .   S
C126       N135 1.300       .   D
C127       N136 1.300       .   D
C127       C140 1.473       .   S
C127       H168 1.084       .   S
Cu128      N131 1.903       .   S
Cu128      N132 1.922       .   S
Cu128      N130 1.902       .   S
N129      Cu128 1.924       .   S
N133      C1618 1.421       .   S
N134      C1598 1.630       .   S
N135      C1498 1.467       .   S
N136      C1578 1.619       .   S
C137       C142 1.400       .   D
C138       C137 1.403       .   S
C138       H169 1.084       .   S
C138       C139 1.395       .   D
C139       C140 1.405       .   S
C139       H170 1.083       .   S
C141       C140 1.404       .   D
C141       H171 1.083       .   S
C141       C142 1.397       .   S
C142       H172 1.079       .   S
C143       C148 1.407       .   S
C143       C144 1.403       .   D
C144       C145 1.397       .   S
C144       H173 1.083       .   S
C145       C146 1.404       .   D
C145       H174 1.083       .   S
C146       C147 1.400       .   S
C147       H175 1.077       .   S
C147       C148 1.397       .   D
C148       H176 1.083       .   S
C177       C178 1.398       .   S
C182       C177 1.474       .   D
C178       C179 1.402       .   D
C178       H183 1.083       .   S
C179       H184 1.083       .   S
C180       C179 1.410       .   S
C180       C181 1.402       .   D
C181       H185 1.084       .   S
C181       C182 1.389       .   S
C182       H186 1.083       .   S
C187       C188 1.408       .   S
C187       N222 1.361       .   D
C187       C239 1.475       .   S
C188       C189 1.401       .   D
C188       H242 1.083       .   S
C189       C190 1.400       .   S
C189       H243 1.083       .   S
C191       C190 1.407       .   D
C198       C190 1.404       .   S
C191       C192 1.406       .   S
H244       C191 1.083       .   S
C192       C193 1.405       .   D
C192       H245 1.083       .   S
C193       C194 1.406       .   S
C193       C197 1.404       .   S
C194       H246 1.083       .   S
C194       C195 1.406       .   D
C195       C196 1.403       .   S
C195       H247 1.083       .   S
C196       N223 1.355       .   D
C196       C200 1.462       .   S
C197       C198 1.413       .   D
C197       N223 1.357       .   S
N222       C198 1.367       .   S
C199       H248 1.083       .   S
C199       C236 1.476       .   S
N226       C199 1.299       .   D
C200       C201 1.399       .   D
C200       C205 1.400       .   S
C201       C202 1.396       .   S
C201       H249 1.083       .   S
C202       C203 1.404       .   D
C202       H250 1.083       .   S
C203       C206 1.473       .   S
C203       C204 1.406       .   S
C204       C205 1.397       .   D
C204       H251 1.083       .   S
C205       H252 1.083       .   S
C206       H253 1.082       .   S
C206       N227 1.300       .   D
C207       C270 1.467       .   S
C207       N224 1.357       .   D
C207       C208 1.405       .   S
C208       C209 1.403       .   D
C208       H254 1.083       .   S
C209       H255 1.083       .   S
C209       C210 1.403       .   S
C210       C218 1.404       .   D
C211       C210 1.405       .   S
C211       C212 1.404       .   D
C211       H256 1.083       .   S
C212       H257 1.083       .   S
C213       C212 1.406       .   S
C213       C214 1.401       .   S
C213       C217 1.405       .   D
C214       C215 1.402       .   D
C214       H258 1.083       .   S
C215       H259 1.083       .   S
C215       C216 1.406       .   S
C216       N225 1.361       .   D
C216       C230 1.470       .   S
C217       C218 1.414       .   S
C217       N225 1.364       .   S
C218       N224 1.361       .   S
C219       H260 1.083       .   S
C219       C273 1.474       .   S
C219       N228 1.300       .   D
C220       N229 1.300       .   D
C220       C233 1.473       .   S
C220       H261 1.084       .   S
Cu221      N224 1.903       .   S
Cu221      N225 1.922       .   S
Cu221      N223 1.902       .   S
N222      Cu221 1.924       .   S
N226      C1669 1.421       .   S
N227      C1649 1.630       .   S
N228      C1638 1.467       .   S
N229      C1569 1.619       .   S
C230       C235 1.400       .   D
C231       C230 1.403       .   S
C231       H262 1.084       .   S
C231       C232 1.395       .   D
C232       C233 1.405       .   S
C232       H263 1.083       .   S
C234       C233 1.404       .   D
C234       H264 1.083       .   S
C234       C235 1.397       .   S
C235       H265 1.079       .   S
C236       C241 1.407       .   S
C236       C237 1.403       .   D
C237       C238 1.397       .   S
C237       H266 1.083       .   S
C238       C239 1.404       .   D
C238       H267 1.083       .   S
C239       C240 1.400       .   S
C240       H268 1.077       .   S
C240       C241 1.397       .   D
C241       H269 1.083       .   S
C270       C271 1.398       .   S
C275       C270 1.474       .   D
C271       C272 1.402       .   D
C271       H276 1.083       .   S
C272       H277 1.083       .   S
C273       C272 1.410       .   S
C273       C274 1.402       .   D
C274       H278 1.084       .   S
C274       C275 1.389       .   S
C275       H279 1.083       .   S
C280       C281 1.408       .   S
C280       N315 1.361       .   D
C280       C332 1.475       .   S
C281       C282 1.401       .   D
C281       H335 1.083       .   S
C282       C283 1.400       .   S
C282       H336 1.083       .   S
C284       C283 1.407       .   D
C291       C283 1.404       .   S
C284       C285 1.406       .   S
H337       C284 1.083       .   S
C285       C286 1.405       .   D
C285       H338 1.083       .   S
C286       C287 1.406       .   S
C286       C290 1.404       .   S
C287       H339 1.083       .   S
C287       C288 1.406       .   D
C288       C289 1.403       .   S
C288       H340 1.083       .   S
C289       N316 1.355       .   D
C289       C293 1.462       .   S
C290       C291 1.413       .   D
C290       N316 1.357       .   S
N315       C291 1.367       .   S
C292       H341 1.083       .   S
C292       C329 1.476       .   S
N319       C292 1.299       .   D
C293       C294 1.399       .   D
C293       C298 1.400       .   S
C294       C295 1.396       .   S
C294       H342 1.083       .   S
C295       C296 1.404       .   D
C295       H343 1.083       .   S
C296       C299 1.473       .   S
C296       C297 1.406       .   S
C297       C298 1.397       .   D
C297       H344 1.083       .   S
C298       H345 1.083       .   S
C299       H346 1.082       .   S
C299       N320 1.300       .   D
C300       C363 1.467       .   S
C300       N317 1.357       .   D
C300       C301 1.405       .   S
C301       C302 1.403       .   D
C301       H347 1.083       .   S
C302       H348 1.083       .   S
C302       C303 1.403       .   S
C303       C311 1.404       .   D
C304       C303 1.405       .   S
C304       C305 1.404       .   D
C304       H349 1.083       .   S
C305       H350 1.083       .   S
C306       C305 1.406       .   S
C306       C307 1.401       .   S
C306       C310 1.405       .   D
C307       C308 1.402       .   D
C307       H351 1.083       .   S
C308       H352 1.083       .   S
C308       C309 1.406       .   S
C309       N318 1.361       .   D
C309       C323 1.470       .   S
C310       C311 1.414       .   S
C310       N318 1.364       .   S
C311       N317 1.361       .   S
C312       H353 1.083       .   S
C312       C366 1.474       .   S
C312       N321 1.300       .   D
C313       N322 1.300       .   D
C313       C326 1.473       .   S
C313       H354 1.084       .   S
Cu314      N317 1.903       .   S
Cu314      N318 1.922       .   S
Cu314      N316 1.902       .   S
N315      Cu314 1.924       .   S
N319      C1718 1.420       .   S
N320      C1518 1.458   1_545   S
N321      C1629 1.467       .   S
N322      C1698 1.630       .   S
C323       C328 1.400       .   D
C324       C323 1.403       .   S
C324       H355 1.084       .   S
C324       C325 1.395       .   D
C325       C326 1.405       .   S
C325       H356 1.083       .   S
C327       C326 1.404       .   D
C327       H357 1.083       .   S
C327       C328 1.397       .   S
C328       H358 1.079       .   S
C329       C334 1.407       .   S
C329       C330 1.403       .   D
C330       C331 1.397       .   S
C330       H359 1.083       .   S
C331       C332 1.404       .   D
C331       H360 1.083       .   S
C332       C333 1.400       .   S
C333       H361 1.077       .   S
C333       C334 1.397       .   D
C334       H362 1.083       .   S
C363       C364 1.398       .   S
C368       C363 1.474       .   D
C364       C365 1.402       .   D
C364       H369 1.083       .   S
C365       H370 1.083       .   S
C366       C365 1.410       .   S
C366       C367 1.402       .   D
C367       H371 1.084       .   S
C367       C368 1.389       .   S
C368       H372 1.083       .   S
C373       C374 1.408       .   S
C373       N408 1.361       .   D
C373       C425 1.475       .   S
C374       C375 1.401       .   D
C374       H428 1.083       .   S
C375       C376 1.400       .   S
C375       H429 1.083       .   S
C377       C376 1.407       .   D
C384       C376 1.404       .   S
C377       C378 1.406       .   S
H430       C377 1.083       .   S
C378       C379 1.405       .   D
C378       H431 1.083       .   S
C379       C380 1.406       .   S
C379       C383 1.404       .   S
C380       H432 1.083       .   S
C380       C381 1.406       .   D
C381       C382 1.403       .   S
C381       H433 1.083       .   S
C382       N409 1.355       .   D
C382       C386 1.462       .   S
C383       C384 1.413       .   D
C383       N409 1.357       .   S
N408       C384 1.367       .   S
C385       H434 1.083       .   S
C385       C422 1.476       .   S
N412       C385 1.299       .   D
C386       C387 1.399       .   D
C386       C391 1.400       .   S
C387       C388 1.396       .   S
C387       H435 1.083       .   S
C388       C389 1.404       .   D
C388       H436 1.083       .   S
C389       C392 1.473       .   S
C389       C390 1.406       .   S
C390       C391 1.397       .   D
C390       H437 1.083       .   S
C391       H438 1.083       .   S
C392       H439 1.082       .   S
C392       N413 1.300       .   D
C393       C456 1.467       .   S
C393       N410 1.357       .   D
C393       C394 1.405       .   S
C394       C395 1.403       .   D
C394       H440 1.083       .   S
C395       H441 1.083       .   S
C395       C396 1.403       .   S
C396       C404 1.404       .   D
C397       C396 1.405       .   S
C397       C398 1.404       .   D
C397       H442 1.083       .   S
C398       H443 1.083       .   S
C399       C398 1.406       .   S
C399       C400 1.401       .   S
C399       C403 1.405       .   D
C400       C401 1.402       .   D
C400       H444 1.083       .   S
C401       H445 1.083       .   S
C401       C402 1.406       .   S
C402       N411 1.361       .   D
C402       C416 1.470       .   S
C403       C404 1.414       .   S
C403       N411 1.364       .   S
C404       N410 1.361       .   S
C405       H446 1.083       .   S
C405       C459 1.474       .   S
C405       N414 1.300       .   D
C406       N415 1.300       .   D
C406       C419 1.473       .   S
C406       H447 1.084       .   S
Cu407      N410 1.903       .   S
Cu407      N411 1.922       .   S
Cu407      N409 1.902       .   S
N408      Cu407 1.924       .   S
N412      C1778 1.421       .   S
N413      C1749 1.458       .   S
N414      C1729 1.467       .   S
N415      C1658 1.630       .   S
C416       C421 1.400       .   D
C417       C416 1.403       .   S
C417       H448 1.084       .   S
C417       C418 1.395       .   D
C418       C419 1.405       .   S
C418       H449 1.083       .   S
C420       C419 1.404       .   D
C420       H450 1.083       .   S
C420       C421 1.397       .   S
C421       H451 1.079       .   S
C422       C427 1.407       .   S
C422       C423 1.403       .   D
C423       C424 1.397       .   S
C423       H452 1.083       .   S
C424       C425 1.404       .   D
C424       H453 1.083       .   S
C425       C426 1.400       .   S
C426       H454 1.077       .   S
C426       C427 1.397       .   D
C427       H455 1.083       .   S
C456       C457 1.398       .   S
C461       C456 1.474       .   D
C457       C458 1.402       .   D
C457       H462 1.083       .   S
C458       H463 1.083       .   S
C459       C458 1.410       .   S
C459       C460 1.402       .   D
C460       H464 1.084       .   S
C460       C461 1.389       .   S
C461       H465 1.083       .   S
C466       C467 1.408       .   S
C466       N501 1.361       .   D
C466       C518 1.475       .   S
C467       C468 1.401       .   D
C467       H521 1.083       .   S
C468       C469 1.400       .   S
C468       H522 1.083       .   S
C470       C469 1.407       .   D
C477       C469 1.404       .   S
C470       C471 1.406       .   S
H523       C470 1.083       .   S
C471       C472 1.405       .   D
C471       H524 1.083       .   S
C472       C473 1.406       .   S
C472       C476 1.404       .   S
C473       H525 1.083       .   S
C473       C474 1.406       .   D
C474       C475 1.403       .   S
C474       H526 1.083       .   S
C475       N502 1.355       .   D
C475       C479 1.462       .   S
C476       C477 1.413       .   D
C476       N502 1.357       .   S
N501       C477 1.367       .   S
C478       H527 1.083       .   S
C478       C515 1.476       .   S
N505       C478 1.299       .   D
C479       C480 1.399       .   D
C479       C484 1.400       .   S
C480       C481 1.396       .   S
C480       H528 1.083       .   S
C481       C482 1.404       .   D
C481       H529 1.083       .   S
C482       C485 1.473       .   S
C482       C483 1.406       .   S
C483       C484 1.397       .   D
C483       H530 1.083       .   S
C484       H531 1.083       .   S
C485       H532 1.082       .   S
C485       N506 1.300       .   D
C486       C549 1.467       .   S
C486       N503 1.357       .   D
C486       C487 1.405       .   S
C487       C488 1.403       .   D
C487       H533 1.083       .   S
C488       H534 1.083       .   S
C488       C489 1.403       .   S
C489       C497 1.404       .   D
C490       C489 1.405       .   S
C490       C491 1.404       .   D
C490       H535 1.083       .   S
C491       H536 1.083       .   S
C492       C491 1.406       .   S
C492       C493 1.401       .   S
C492       C496 1.405       .   D
C493       C494 1.402       .   D
C493       H537 1.083       .   S
C494       H538 1.083       .   S
C494       C495 1.406       .   S
C495       N504 1.361       .   D
C495       C509 1.470       .   S
C496       C497 1.414       .   S
C496       N504 1.364       .   S
C497       N503 1.361       .   S
C498       H539 1.083       .   S
C498       C552 1.474       .   S
C498       N507 1.300       .   D
C499       N508 1.300       .   D
C499       C512 1.473       .   S
C499       H540 1.084       .   S
Cu500      N503 1.903       .   S
Cu500      N504 1.922       .   S
Cu500      N502 1.902       .   S
N501      Cu500 1.924       .   S
N505      C1809 1.421       .   S
N506      C1689 1.630       .   S
N507      C1738 1.467   1_556   S
N508      C1789 1.619       .   S
C509       C514 1.400       .   D
C510       C509 1.403       .   S
C510       H541 1.084       .   S
C510       C511 1.395       .   D
C511       C512 1.405       .   S
C511       H542 1.083       .   S
C513       C512 1.404       .   D
C513       H543 1.083       .   S
C513       C514 1.397       .   S
C514       H544 1.079       .   S
C515       C520 1.407       .   S
C515       C516 1.403       .   D
C516       C517 1.397       .   S
C516       H545 1.083       .   S
C517       C518 1.404       .   D
C517       H546 1.083       .   S
C518       C519 1.400       .   S
C519       H547 1.077       .   S
C519       C520 1.397       .   D
C520       H548 1.083       .   S
C549       C550 1.398       .   S
C554       C549 1.474       .   D
C550       C551 1.402       .   D
C550       H555 1.083       .   S
C551       H556 1.083       .   S
C552       C551 1.410       .   S
C552       C553 1.402       .   D
C553       H557 1.084       .   S
C553       C554 1.389       .   S
C554       H558 1.083       .   S
C559       C560 1.408       .   S
C559       N594 1.361       .   D
C559       C611 1.475       .   S
C560       C561 1.401       .   D
C560       H614 1.083       .   S
C561       C562 1.400       .   S
C561       H615 1.083       .   S
C563       C562 1.407       .   D
C570       C562 1.404       .   S
C563       C564 1.406       .   S
H616       C563 1.083       .   S
C564       C565 1.405       .   D
C564       H617 1.083       .   S
C565       C566 1.406       .   S
C565       C569 1.404       .   S
C566       H618 1.083       .   S
C566       C567 1.406       .   D
C567       C568 1.403       .   S
C567       H619 1.083       .   S
C568       N595 1.355       .   D
C568       C572 1.462       .   S
C569       C570 1.413       .   D
C569       N595 1.357       .   S
N594       C570 1.367       .   S
C571       H620 1.083       .   S
C571       C608 1.476       .   S
N598       C571 1.299       .   D
C572       C573 1.399       .   D
C572       C577 1.400       .   S
C573       C574 1.396       .   S
C573       H621 1.083       .   S
C574       C575 1.404       .   D
C574       H622 1.083       .   S
C575       C578 1.473       .   S
C575       C576 1.406       .   S
C576       C577 1.397       .   D
C576       H623 1.083       .   S
C577       H624 1.083       .   S
C578       H625 1.082       .   S
C578       N599 1.300       .   D
C579       C642 1.467       .   S
C579       N596 1.357       .   D
C579       C580 1.405       .   S
C580       C581 1.403       .   D
C580       H626 1.083       .   S
C581       H627 1.083       .   S
C581       C582 1.403       .   S
C582       C590 1.404       .   D
C583       C582 1.405       .   S
C583       C584 1.404       .   D
C583       H628 1.083       .   S
C584       H629 1.083       .   S
C585       C584 1.406       .   S
C585       C586 1.401       .   S
C585       C589 1.405       .   D
C586       C587 1.402       .   D
C586       H630 1.083       .   S
C587       H631 1.083       .   S
C587       C588 1.406       .   S
C588       N597 1.361       .   D
C588       C602 1.470       .   S
C589       C590 1.414       .   S
C589       N597 1.364       .   S
C590       N596 1.361       .   S
C591       H632 1.083       .   S
C591       C645 1.474       .   S
C591       N600 1.300       .   D
C592       N601 1.300       .   D
C592       C605 1.473       .   S
C592       H633 1.084       .   S
Cu593      N596 1.903       .   S
Cu593      N597 1.922       .   S
Cu593      N595 1.902       .   S
N594      Cu593 1.924       .   S
N598      C1858 1.421       .   S
N599      C1538 1.630       .   S
N600      C1838 1.467       .   S
N601      C1798 1.619   1_564   S
C602       C607 1.400       .   D
C603       C602 1.403       .   S
C603       H634 1.084       .   S
C603       C604 1.395       .   D
C604       C605 1.405       .   S
C604       H635 1.083       .   S
C606       C605 1.404       .   D
C606       H636 1.083       .   S
C606       C607 1.397       .   S
C607       H637 1.079       .   S
C608       C613 1.407       .   S
C608       C609 1.403       .   D
C609       C610 1.397       .   S
C609       H638 1.083       .   S
C610       C611 1.404       .   D
C610       H639 1.083       .   S
C611       C612 1.400       .   S
C612       H640 1.077       .   S
C612       C613 1.397       .   D
C613       H641 1.083       .   S
C642       C643 1.398       .   S
C647       C642 1.474       .   D
C643       C644 1.402       .   D
C643       H648 1.083       .   S
C644       H649 1.083       .   S
C645       C644 1.410       .   S
C645       C646 1.402       .   D
C646       H650 1.084       .   S
C646       C647 1.389       .   S
C647       H651 1.083       .   S
C652       C653 1.408       .   S
C652       N687 1.361       .   D
C652       C704 1.475       .   S
C653       C654 1.401       .   D
C653       H707 1.083       .   S
C654       C655 1.400       .   S
C654       H708 1.083       .   S
C656       C655 1.407       .   D
C663       C655 1.404       .   S
C656       C657 1.406       .   S
H709       C656 1.083       .   S
C657       C658 1.405       .   D
C657       H710 1.083       .   S
C658       C659 1.406       .   S
C658       C662 1.404       .   S
C659       H711 1.083       .   S
C659       C660 1.406       .   D
C660       C661 1.403       .   S
C660       H712 1.083       .   S
C661       N688 1.355       .   D
C661       C665 1.462       .   S
C662       C663 1.413       .   D
C662       N688 1.357       .   S
N687       C663 1.367       .   S
C664       H713 1.083       .   S
C664       C701 1.476       .   S
N691       C664 1.299       .   D
C665       C666 1.399       .   D
C665       C670 1.400       .   S
C666       C667 1.396       .   S
C666       H714 1.083       .   S
C667       C668 1.404       .   D
C667       H715 1.083       .   S
C668       C671 1.473       .   S
C668       C669 1.406       .   S
C669       C670 1.397       .   D
C669       H716 1.083       .   S
C670       H717 1.083       .   S
C671       H718 1.082       .   S
C671       N692 1.300       .   D
C672       C735 1.467       .   S
C672       N689 1.357       .   D
C672       C673 1.405       .   S
C673       C674 1.403       .   D
C673       H719 1.083       .   S
C674       H720 1.083       .   S
C674       C675 1.403       .   S
C675       C683 1.404       .   D
C676       C675 1.405       .   S
C676       C677 1.404       .   D
C676       H721 1.083       .   S
C677       H722 1.083       .   S
C678       C677 1.406       .   S
C678       C679 1.401       .   S
C678       C682 1.405       .   D
C679       C680 1.402       .   D
C679       H723 1.083       .   S
C680       H724 1.083       .   S
C680       C681 1.406       .   S
C681       N690 1.361       .   D
C681       C695 1.470       .   S
C682       C683 1.414       .   S
C682       N690 1.364       .   S
C683       N689 1.361       .   S
C684       H725 1.083       .   S
C684       C738 1.474       .   S
C684       N693 1.300       .   D
C685       N694 1.300       .   D
C685       C698 1.473       .   S
C685       H726 1.084       .   S
Cu686      N689 1.903       .   S
Cu686      N690 1.922       .   S
Cu686      N688 1.902       .   S
N687      Cu686 1.924       .   S
N691      C1869 1.421       .   S
N692      C1758 1.458   1_556   S
N693      C1829 1.467   1_556   S
N694      C1589 1.630       .   S
C695       C700 1.400       .   D
C696       C695 1.403       .   S
C696       H727 1.084       .   S
C696       C697 1.395       .   D
C697       C698 1.405       .   S
C697       H728 1.083       .   S
C699       C698 1.404       .   D
C699       H729 1.083       .   S
C699       C700 1.397       .   S
C700       H730 1.079       .   S
C701       C706 1.407       .   S
C701       C702 1.403       .   D
C702       C703 1.397       .   S
C702       H731 1.083       .   S
C703       C704 1.404       .   D
C703       H732 1.083       .   S
C704       C705 1.400       .   S
C705       H733 1.077       .   S
C705       C706 1.397       .   D
C706       H734 1.083       .   S
C735       C736 1.398       .   S
C740       C735 1.474       .   D
C736       C737 1.402       .   D
C736       H741 1.083       .   S
C737       H742 1.083       .   S
C738       C737 1.410       .   S
C738       C739 1.402       .   D
C739       H743 1.084       .   S
C739       C740 1.389       .   S
C740       H744 1.083       .   S
C745       C746 1.408       .   S
C745       N780 1.361       .   D
C745       C797 1.475       .   S
C746       C747 1.401       .   D
C746       H800 1.083       .   S
C747       C748 1.400       .   S
C747       H801 1.083       .   S
C749       C748 1.407       .   D
C756       C748 1.404       .   S
C749       C750 1.406       .   S
H802       C749 1.083       .   S
C750       C751 1.405       .   D
C750       H803 1.083       .   S
C751       C752 1.406       .   S
C751       C755 1.404       .   S
C752       H804 1.083       .   S
C752       C753 1.406       .   D
C753       C754 1.403       .   S
C753       H805 1.083       .   S
C754       N781 1.355       .   D
C754       C758 1.462       .   S
C755       C756 1.413       .   D
C755       N781 1.357       .   S
N780       C756 1.367       .   S
C757       H806 1.083       .   S
C757       C794 1.476       .   S
N784       C757 1.299       .   D
C758       C759 1.399       .   D
C758       C763 1.400       .   S
C759       C760 1.396       .   S
C759       H807 1.083       .   S
C760       C761 1.404       .   D
C760       H808 1.083       .   S
C761       C764 1.473       .   S
C761       C762 1.406       .   S
C762       C763 1.397       .   D
C762       H809 1.083       .   S
C763       H810 1.083       .   S
C764       H811 1.082       .   S
C764       N785 1.300       .   D
C765       C828 1.467       .   S
C765       N782 1.357       .   D
C765       C766 1.405       .   S
C766       C767 1.403       .   D
C766       H812 1.083       .   S
C767       H813 1.083       .   S
C767       C768 1.403       .   S
C768       C776 1.404       .   D
C769       C768 1.405       .   S
C769       C770 1.404       .   D
C769       H814 1.083       .   S
C770       H815 1.083       .   S
C771       C770 1.406       .   S
C771       C772 1.401       .   S
C771       C775 1.405       .   D
C772       C773 1.402       .   D
C772       H816 1.083       .   S
C773       H817 1.083       .   S
C773       C774 1.406       .   S
C774       N783 1.361       .   D
C774       C788 1.470       .   S
C775       C776 1.414       .   S
C775       N783 1.364       .   S
C776       N782 1.361       .   S
C777       H818 1.083       .   S
C777       C831 1.474       .   S
C777       N786 1.300       .   D
C778       N787 1.300       .   D
C778       C791 1.473       .   S
C778       H819 1.084       .   S
Cu779      N782 1.903       .   S
Cu779      N783 1.922       .   S
Cu779      N781 1.902       .   S
N780      Cu779 1.924       .   S
N784      C1558 1.420       .   S
N785      C1938 1.630       .   S
N786      C1889 1.467       .   S
N787      C1909 1.619       .   S
C788       C793 1.400       .   D
C789       C788 1.403       .   S
C789       H820 1.084       .   S
C789       C790 1.395       .   D
C790       C791 1.405       .   S
C790       H821 1.083       .   S
C792       C791 1.404       .   D
C792       H822 1.083       .   S
C792       C793 1.397       .   S
C793       H823 1.079       .   S
C794       C799 1.407       .   S
C794       C795 1.403       .   D
C795       C796 1.397       .   S
C795       H824 1.083       .   S
C796       C797 1.404       .   D
C796       H825 1.083       .   S
C797       C798 1.400       .   S
C798       H826 1.077       .   S
C798       C799 1.397       .   D
C799       H827 1.083       .   S
C828       C829 1.398       .   S
C833       C828 1.474       .   D
C829       C830 1.402       .   D
C829       H834 1.083       .   S
C830       H835 1.083       .   S
C831       C830 1.410       .   S
C831       C832 1.402       .   D
C832       H836 1.084       .   S
C832       C833 1.389       .   S
C833       H837 1.083       .   S
C838       C839 1.408       .   S
C838       N873 1.361       .   D
C838       C890 1.475       .   S
C839       C840 1.401       .   D
C839       H893 1.083       .   S
C840       C841 1.400       .   S
C840       H894 1.083       .   S
C842       C841 1.407       .   D
C849       C841 1.404       .   S
C842       C843 1.406       .   S
H895       C842 1.083       .   S
C843       C844 1.405       .   D
C843       H896 1.083       .   S
C844       C845 1.406       .   S
C844       C848 1.404       .   S
C845       H897 1.083       .   S
C845       C846 1.406       .   D
C846       C847 1.403       .   S
C846       H898 1.083       .   S
C847       N874 1.355       .   D
C847       C851 1.462       .   S
C848       C849 1.413       .   D
C848       N874 1.357       .   S
N873       C849 1.367       .   S
C850       H899 1.083       .   S
C850       C887 1.476       .   S
N877       C850 1.299       .   D
C851       C852 1.399       .   D
C851       C856 1.400       .   S
C852       C853 1.396       .   S
C852       H900 1.083       .   S
C853       C854 1.404       .   D
C853       H901 1.083       .   S
C854       C857 1.473       .   S
C854       C855 1.406       .   S
C855       C856 1.397       .   D
C855       H902 1.083       .   S
C856       H903 1.083       .   S
C857       H904 1.082       .   S
C857       N878 1.300       .   D
C858       C921 1.467       .   S
C858       N875 1.357       .   D
C858       C859 1.405       .   S
C859       C860 1.403       .   D
C859       H905 1.083       .   S
C860       H906 1.083       .   S
C860       C861 1.403       .   S
C861       C869 1.404       .   D
C862       C861 1.405       .   S
C862       C863 1.404       .   D
C862       H907 1.083       .   S
C863       H908 1.083       .   S
C864       C863 1.406       .   S
C864       C865 1.401       .   S
C864       C868 1.405       .   D
C865       C866 1.402       .   D
C865       H909 1.083       .   S
C866       H910 1.083       .   S
C866       C867 1.406       .   S
C867       N876 1.361       .   D
C867       C881 1.470       .   S
C868       C869 1.414       .   S
C868       N876 1.364       .   S
C869       N875 1.361       .   S
C870       H911 1.083       .   S
C870       C924 1.474       .   S
C870       N879 1.300       .   D
C871       N880 1.300       .   D
C871       C884 1.473       .   S
C871       H912 1.084       .   S
Cu872      N875 1.903       .   S
Cu872      N876 1.922       .   S
Cu872      N874 1.902       .   S
N873      Cu872 1.924       .   S
N877      C1609 1.421   1_655   S
N878      C1949 1.458       .   S
N879      C1898 1.467       .   S
N880      C1969 1.630       .   S
C881       C886 1.400       .   D
C882       C881 1.403       .   S
C882       H913 1.084       .   S
C882       C883 1.395       .   D
C883       C884 1.405       .   S
C883       H914 1.083       .   S
C885       C884 1.404       .   D
C885       H915 1.083       .   S
C885       C886 1.397       .   S
C886       H916 1.079       .   S
C887       C892 1.407       .   S
C887       C888 1.403       .   D
C888       C889 1.397       .   S
C888       H917 1.083       .   S
C889       C890 1.404       .   D
C889       H918 1.083       .   S
C890       C891 1.400       .   S
C891       H919 1.077       .   S
C891       C892 1.397       .   D
C892       H920 1.083       .   S
C921       C922 1.398       .   S
C926       C921 1.474       .   D
C922       C923 1.402       .   D
C922       H927 1.083       .   S
C923       H928 1.083       .   S
C924       C923 1.410       .   S
C924       C925 1.402       .   D
C925       H929 1.084       .   S
C925       C926 1.389       .   S
C926       H930 1.083       .   S
C931       C932 1.408       .   S
C931       N966 1.361       .   D
C931       C983 1.475       .   S
C932       C933 1.401       .   D
C932       H986 1.083       .   S
C933       C934 1.400       .   S
C933       H987 1.083       .   S
C935       C934 1.407       .   D
C942       C934 1.404       .   S
C935       C936 1.406       .   S
H988       C935 1.083       .   S
C936       C937 1.405       .   D
C936       H989 1.083       .   S
C937       C938 1.406       .   S
C937       C941 1.404       .   S
C938       H990 1.083       .   S
C938       C939 1.406       .   D
C939       C940 1.403       .   S
C939       H991 1.083       .   S
C940       N967 1.355       .   D
C940       C944 1.462       .   S
C941       C942 1.413       .   D
C941       N967 1.357       .   S
N966       C942 1.367       .   S
C943       H992 1.083       .   S
C943       C980 1.476       .   S
N970       C943 1.299       .   D
C944       C945 1.399       .   D
C944       C949 1.400       .   S
C945       C946 1.396       .   S
C945       H993 1.083       .   S
C946       C947 1.404       .   D
C946       H994 1.083       .   S
C947       C950 1.473       .   S
C947       C948 1.406       .   S
C948       C949 1.397       .   D
C948       H995 1.083       .   S
C949       H996 1.083       .   S
C950       H997 1.082       .   S
C950       N971 1.300       .   D
C951      C1014 1.467       .   S
C951       N968 1.357       .   D
C951       C952 1.405       .   S
C952       C953 1.403       .   D
C952       H998 1.083       .   S
C953       H999 1.083       .   S
C953       C954 1.403       .   S
C954       C962 1.404       .   D
C955       C954 1.405       .   S
C955       C956 1.404       .   D
C955      H1000 1.083       .   S
C956      H1001 1.083       .   S
C957       C956 1.406       .   S
C957       C958 1.401       .   S
C957       C961 1.405       .   D
C958       C959 1.402       .   D
C958      H1002 1.083       .   S
C959      H1003 1.083       .   S
C959       C960 1.406       .   S
C960       N969 1.361       .   D
C960       C974 1.470       .   S
C961       C962 1.414       .   S
C961       N969 1.364       .   S
C962       N968 1.361       .   S
C963      H1004 1.083       .   S
C963      C1017 1.474       .   S
C963       N972 1.300       .   D
C964       N973 1.300       .   D
C964       C977 1.473       .   S
C964      H1005 1.084       .   S
Cu965      N968 1.903       .   S
Cu965      N969 1.922       .   S
Cu965      N967 1.902       .   S
N966      Cu965 1.924       .   S
N970      C1678 1.421   1_655   S
N971      C1958 1.458       .   S
N972      C1998 1.467       .   S
N973      C2009 1.630       .   S
C974       C979 1.400       .   D
C975       C974 1.403       .   S
C975      H1006 1.084       .   S
C975       C976 1.395       .   D
C976       C977 1.405       .   S
C976      H1007 1.083       .   S
C978       C977 1.404       .   D
C978      H1008 1.083       .   S
C978       C979 1.397       .   S
C979      H1009 1.079       .   S
C980       C985 1.407       .   S
C980       C981 1.403       .   D
C981       C982 1.397       .   S
C981      H1010 1.083       .   S
C982       C983 1.404       .   D
C982      H1011 1.083       .   S
C983       C984 1.400       .   S
C984      H1012 1.077       .   S
C984       C985 1.397       .   D
C985      H1013 1.083       .   S
C1014     C1015 1.398       .   S
C1019     C1014 1.474       .   D
C1015     C1016 1.402       .   D
C1015     H1020 1.083       .   S
C1016     H1021 1.083       .   S
C1017     C1016 1.410       .   S
C1017     C1018 1.402       .   D
C1018     H1022 1.084       .   S
C1018     C1019 1.389       .   S
C1019     H1023 1.083       .   S
C1024     C1025 1.408       .   S
C1024     N1059 1.361       .   D
C1024     C1076 1.475       .   S
C1025     C1026 1.401       .   D
C1025     H1079 1.083       .   S
C1026     C1027 1.400       .   S
C1026     H1080 1.083       .   S
C1028     C1027 1.407       .   D
C1035     C1027 1.404       .   S
C1028     C1029 1.406       .   S
H1081     C1028 1.083       .   S
C1029     C1030 1.405       .   D
C1029     H1082 1.083       .   S
C1030     C1031 1.406       .   S
C1030     C1034 1.404       .   S
C1031     H1083 1.083       .   S
C1031     C1032 1.406       .   D
C1032     C1033 1.403       .   S
C1032     H1084 1.083       .   S
C1033     N1060 1.355       .   D
C1033     C1037 1.462       .   S
C1034     C1035 1.413       .   D
C1034     N1060 1.357       .   S
N1059     C1035 1.367       .   S
C1036     H1085 1.083       .   S
C1036     C1073 1.476       .   S
N1063     C1036 1.299       .   D
C1037     C1038 1.399       .   D
C1037     C1042 1.400       .   S
C1038     C1039 1.396       .   S
C1038     H1086 1.083       .   S
C1039     C1040 1.404       .   D
C1039     H1087 1.083       .   S
C1040     C1043 1.473       .   S
C1040     C1041 1.406       .   S
C1041     C1042 1.397       .   D
C1041     H1088 1.083       .   S
C1042     H1089 1.083       .   S
C1043     H1090 1.082       .   S
C1043     N1064 1.300       .   D
C1044     C1107 1.467       .   S
C1044     N1061 1.357       .   D
C1044     C1045 1.405       .   S
C1045     C1046 1.403       .   D
C1045     H1091 1.083       .   S
C1046     H1092 1.083       .   S
C1046     C1047 1.403       .   S
C1047     C1055 1.404       .   D
C1048     C1047 1.405       .   S
C1048     C1049 1.404       .   D
C1048     H1093 1.083       .   S
C1049     H1094 1.083       .   S
C1050     C1049 1.406       .   S
C1050     C1051 1.401       .   S
C1050     C1054 1.405       .   D
C1051     C1052 1.402       .   D
C1051     H1095 1.083       .   S
C1052     H1096 1.083       .   S
C1052     C1053 1.406       .   S
C1053     N1062 1.361       .   D
C1053     C1067 1.470       .   S
C1054     C1055 1.414       .   S
C1054     N1062 1.364       .   S
C1055     N1061 1.361       .   S
C1056     H1097 1.083       .   S
C1056     C1110 1.474       .   S
C1056     N1065 1.300       .   D
C1057     N1066 1.300       .   D
C1057     C1070 1.473       .   S
C1057     H1098 1.084       .   S
Cu1058    N1061 1.903       .   S
Cu1058    N1062 1.922       .   S
Cu1058    N1060 1.902       .   S
N1059    Cu1058 1.924       .   S
N1063     C1709 1.420       .   S
N1064     C2038 1.630       .   S
N1065     C1989 1.467       .   S
N1066     C1918 1.619   1_545   S
C1067     C1072 1.400       .   D
C1068     C1067 1.403       .   S
C1068     H1099 1.084       .   S
C1068     C1069 1.395       .   D
C1069     C1070 1.405       .   S
C1069     H1100 1.083       .   S
C1071     C1070 1.404       .   D
C1071     H1101 1.083       .   S
C1071     C1072 1.397       .   S
C1072     H1102 1.079       .   S
C1073     C1078 1.407       .   S
C1073     C1074 1.403       .   D
C1074     C1075 1.397       .   S
C1074     H1103 1.083       .   S
C1075     C1076 1.404       .   D
C1075     H1104 1.083       .   S
C1076     C1077 1.400       .   S
C1077     H1105 1.077       .   S
C1077     C1078 1.397       .   D
C1078     H1106 1.083       .   S
C1107     C1108 1.398       .   S
C1112     C1107 1.474       .   D
C1108     C1109 1.402       .   D
C1108     H1113 1.083       .   S
C1109     H1114 1.083       .   S
C1110     C1109 1.410       .   S
C1110     C1111 1.402       .   D
C1111     H1115 1.084       .   S
C1111     C1112 1.389       .   S
C1112     H1116 1.083       .   S
C1117     C1118 1.408       .   S
C1117     N1152 1.361       .   D
C1117     C1169 1.475       .   S
C1118     C1119 1.401       .   D
C1118     H1172 1.083       .   S
C1119     C1120 1.400       .   S
C1119     H1173 1.083       .   S
C1121     C1120 1.407       .   D
C1128     C1120 1.404       .   S
C1121     C1122 1.406       .   S
H1174     C1121 1.083       .   S
C1122     C1123 1.405       .   D
C1122     H1175 1.083       .   S
C1123     C1124 1.406       .   S
C1123     C1127 1.404       .   S
C1124     H1176 1.083       .   S
C1124     C1125 1.406       .   D
C1125     C1126 1.403       .   S
C1125     H1177 1.083       .   S
C1126     N1153 1.355       .   D
C1126     C1130 1.462       .   S
C1127     C1128 1.413       .   D
C1127     N1153 1.357       .   S
N1152     C1128 1.367       .   S
C1129     H1178 1.083       .   S
C1129     C1166 1.476       .   S
N1156     C1129 1.299       .   D
C1130     C1131 1.399       .   D
C1130     C1135 1.400       .   S
C1131     C1132 1.396       .   S
C1131     H1179 1.083       .   S
C1132     C1133 1.404       .   D
C1132     H1180 1.083       .   S
C1133     C1136 1.473       .   S
C1133     C1134 1.406       .   S
C1134     C1135 1.397       .   D
C1134     H1181 1.083       .   S
C1135     H1182 1.083       .   S
C1136     H1183 1.082       .   S
C1136     N1157 1.300       .   D
C1137     C1200 1.467       .   S
C1137     N1154 1.357       .   D
C1137     C1138 1.405       .   S
C1138     C1139 1.403       .   D
C1138     H1184 1.083       .   S
C1139     H1185 1.083       .   S
C1139     C1140 1.403       .   S
C1140     C1148 1.404       .   D
C1141     C1140 1.405       .   S
C1141     C1142 1.404       .   D
C1141     H1186 1.083       .   S
C1142     H1187 1.083       .   S
C1143     C1142 1.406       .   S
C1143     C1144 1.401       .   S
C1143     C1147 1.405       .   D
C1144     C1145 1.402       .   D
C1144     H1188 1.083       .   S
C1145     H1189 1.083       .   S
C1145     C1146 1.406       .   S
C1146     N1155 1.361       .   D
C1146     C1160 1.470       .   S
C1147     C1148 1.414       .   S
C1147     N1155 1.364       .   S
C1148     N1154 1.361       .   S
C1149     H1190 1.083       .   S
C1149     C1203 1.474       .   S
C1149     N1158 1.300       .   D
C1150     N1159 1.300       .   D
C1150     C1163 1.473       .   S
C1150     H1191 1.084       .   S
Cu1151    N1154 1.903       .   S
Cu1151    N1155 1.922       .   S
Cu1151    N1153 1.902       .   S
N1152    Cu1151 1.924       .   S
N1156     C1769 1.421   1_655   S
N1157     C2018 1.630       .   S
N1158     C2058 1.467       .   S
N1159     C2069 1.619       .   S
C1160     C1165 1.400       .   D
C1161     C1160 1.403       .   S
C1161     H1192 1.084       .   S
C1161     C1162 1.395       .   D
C1162     C1163 1.405       .   S
C1162     H1193 1.083       .   S
C1164     C1163 1.404       .   D
C1164     H1194 1.083       .   S
C1164     C1165 1.397       .   S
C1165     H1195 1.079       .   S
C1166     C1171 1.407       .   S
C1166     C1167 1.403       .   D
C1167     C1168 1.397       .   S
C1167     H1196 1.083       .   S
C1168     C1169 1.404       .   D
C1168     H1197 1.083       .   S
C1169     C1170 1.400       .   S
C1170     H1198 1.077       .   S
C1170     C1171 1.397       .   D
C1171     H1199 1.083       .   S
C1200     C1201 1.398       .   S
C1205     C1200 1.474       .   D
C1201     C1202 1.402       .   D
C1201     H1206 1.083       .   S
C1202     H1207 1.083       .   S
C1203     C1202 1.410       .   S
C1203     C1204 1.402       .   D
C1204     H1208 1.084       .   S
C1204     C1205 1.389       .   S
C1205     H1209 1.083       .   S
C1210     C1211 1.408       .   S
C1210     N1245 1.361       .   D
C1210     C1262 1.475       .   S
C1211     C1212 1.401       .   D
C1211     H1265 1.083       .   S
C1212     C1213 1.400       .   S
C1212     H1266 1.083       .   S
C1214     C1213 1.407       .   D
C1221     C1213 1.404       .   S
C1214     C1215 1.406       .   S
H1267     C1214 1.083       .   S
C1215     C1216 1.405       .   D
C1215     H1268 1.083       .   S
C1216     C1217 1.406       .   S
C1216     C1220 1.404       .   S
C1217     H1269 1.083       .   S
C1217     C1218 1.406       .   D
C1218     C1219 1.403       .   S
C1218     H1270 1.083       .   S
C1219     N1246 1.355       .   D
C1219     C1223 1.462       .   S
C1220     C1221 1.413       .   D
C1220     N1246 1.357       .   S
N1245     C1221 1.367       .   S
C1222     H1271 1.083       .   S
C1222     C1259 1.476       .   S
N1249     C1222 1.299       .   D
C1223     C1224 1.399       .   D
C1223     C1228 1.400       .   S
C1224     C1225 1.396       .   S
C1224     H1272 1.083       .   S
C1225     C1226 1.404       .   D
C1225     H1273 1.083       .   S
C1226     C1229 1.473       .   S
C1226     C1227 1.406       .   S
C1227     C1228 1.397       .   D
C1227     H1274 1.083       .   S
C1228     H1275 1.083       .   S
C1229     H1276 1.082       .   S
C1229     N1250 1.300       .   D
C1230     C1293 1.467       .   S
C1230     N1247 1.357       .   D
C1230     C1231 1.405       .   S
C1231     C1232 1.403       .   D
C1231     H1277 1.083       .   S
C1232     H1278 1.083       .   S
C1232     C1233 1.403       .   S
C1233     C1241 1.404       .   D
C1234     C1233 1.405       .   S
C1234     C1235 1.404       .   D
C1234     H1279 1.083       .   S
C1235     H1280 1.083       .   S
C1236     C1235 1.406       .   S
C1236     C1237 1.401       .   S
C1236     C1240 1.405       .   D
C1237     C1238 1.402       .   D
C1237     H1281 1.083       .   S
C1238     H1282 1.083       .   S
C1238     C1239 1.406       .   S
C1239     N1248 1.361       .   D
C1239     C1253 1.470       .   S
C1240     C1241 1.414       .   S
C1240     N1248 1.364       .   S
C1241     N1247 1.361       .   S
C1242     H1283 1.083       .   S
C1242     C1296 1.474       .   S
C1242     N1251 1.300       .   D
C1243     N1252 1.300       .   D
C1243     C1256 1.473       .   S
C1243     H1284 1.084       .   S
Cu1244    N1247 1.903       .   S
Cu1244    N1248 1.922       .   S
Cu1244    N1246 1.902       .   S
N1245    Cu1244 1.924       .   S
N1249     C1818 1.421       .   S
N1250     C2098 1.458       .   S
N1251     C2049 1.467   1_556   S
N1252     C2029 1.630       .   S
C1253     C1258 1.400       .   D
C1254     C1253 1.403       .   S
C1254     H1285 1.084       .   S
C1254     C1255 1.395       .   D
C1255     C1256 1.405       .   S
C1255     H1286 1.083       .   S
C1257     C1256 1.404       .   D
C1257     H1287 1.083       .   S
C1257     C1258 1.397       .   S
C1258     H1288 1.079       .   S
C1259     C1264 1.407       .   S
C1259     C1260 1.403       .   D
C1260     C1261 1.397       .   S
C1260     H1289 1.083       .   S
C1261     C1262 1.404       .   D
C1261     H1290 1.083       .   S
C1262     C1263 1.400       .   S
C1263     H1291 1.077       .   S
C1263     C1264 1.397       .   D
C1264     H1292 1.083       .   S
C1293     C1294 1.398       .   S
C1298     C1293 1.474       .   D
C1294     C1295 1.402       .   D
C1294     H1299 1.083       .   S
C1295     H1300 1.083       .   S
C1296     C1295 1.410       .   S
C1296     C1297 1.402       .   D
C1297     H1301 1.084       .   S
C1297     C1298 1.389       .   S
C1298     H1302 1.083       .   S
C1303     C1304 1.408       .   S
C1303     N1338 1.361       .   D
C1303     C1355 1.475       .   S
C1304     C1305 1.401       .   D
C1304     H1358 1.083       .   S
C1305     C1306 1.400       .   S
C1305     H1359 1.083       .   S
C1307     C1306 1.407       .   D
C1314     C1306 1.404       .   S
C1307     C1308 1.406       .   S
H1360     C1307 1.083       .   S
C1308     C1309 1.405       .   D
C1308     H1361 1.083       .   S
C1309     C1310 1.406       .   S
C1309     C1313 1.404       .   S
C1310     H1362 1.083       .   S
C1310     C1311 1.406       .   D
C1311     C1312 1.403       .   S
C1311     H1363 1.083       .   S
C1312     N1339 1.355       .   D
C1312     C1316 1.462       .   S
C1313     C1314 1.413       .   D
C1313     N1339 1.357       .   S
N1338     C1314 1.367       .   S
C1315     H1364 1.083       .   S
C1315     C1352 1.476       .   S
N1342     C1315 1.299       .   D
C1316     C1317 1.399       .   D
C1316     C1321 1.400       .   S
C1317     C1318 1.396       .   S
C1317     H1365 1.083       .   S
C1318     C1319 1.404       .   D
C1318     H1366 1.083       .   S
C1319     C1322 1.473       .   S
C1319     C1320 1.406       .   S
C1320     C1321 1.397       .   D
C1320     H1367 1.083       .   S
C1321     H1368 1.083       .   S
C1322     H1369 1.082       .   S
C1322     N1343 1.300       .   D
C1323     C1386 1.467       .   S
C1323     N1340 1.357       .   D
C1323     C1324 1.405       .   S
C1324     C1325 1.403       .   D
C1324     H1370 1.083       .   S
C1325     H1371 1.083       .   S
C1325     C1326 1.403       .   S
C1326     C1334 1.404       .   D
C1327     C1326 1.405       .   S
C1327     C1328 1.404       .   D
C1327     H1372 1.083       .   S
C1328     H1373 1.083       .   S
C1329     C1328 1.406       .   S
C1329     C1330 1.401       .   S
C1329     C1333 1.405       .   D
C1330     C1331 1.402       .   D
C1330     H1374 1.083       .   S
C1331     H1375 1.083       .   S
C1331     C1332 1.406       .   S
C1332     N1341 1.361       .   D
C1332     C1346 1.470       .   S
C1333     C1334 1.414       .   S
C1333     N1341 1.364       .   S
C1334     N1340 1.361       .   S
C1335     H1376 1.083       .   S
C1335     C1389 1.474       .   S
C1335     N1344 1.300       .   D
C1336     N1345 1.300       .   D
C1336     C1349 1.473       .   S
C1336     H1377 1.084       .   S
Cu1337    N1340 1.903       .   S
Cu1337    N1341 1.922       .   S
Cu1337    N1339 1.902       .   S
N1338    Cu1337 1.924       .   S
N1342     C1849 1.421       .   S
N1343     C2089 1.458   1_564   S
N1344     C2118 1.467       .   S
N1345     C1929 1.630       .   S
C1346     C1351 1.400       .   D
C1347     C1346 1.403       .   S
C1347     H1378 1.084       .   S
C1347     C1348 1.395       .   D
C1348     C1349 1.405       .   S
C1348     H1379 1.083       .   S
C1350     C1349 1.404       .   D
C1350     H1380 1.083       .   S
C1350     C1351 1.397       .   S
C1351     H1381 1.079       .   S
C1352     C1357 1.407       .   S
C1352     C1353 1.403       .   D
C1353     C1354 1.397       .   S
C1353     H1382 1.083       .   S
C1354     C1355 1.404       .   D
C1354     H1383 1.083       .   S
C1355     C1356 1.400       .   S
C1356     H1384 1.077       .   S
C1356     C1357 1.397       .   D
C1357     H1385 1.083       .   S
C1386     C1387 1.398       .   S
C1391     C1386 1.474       .   D
C1387     C1388 1.402       .   D
C1387     H1392 1.083       .   S
C1388     H1393 1.083       .   S
C1389     C1388 1.410       .   S
C1389     C1390 1.402       .   D
C1390     H1394 1.084       .   S
C1390     C1391 1.389       .   S
C1391     H1395 1.083       .   S
C1396     C1397 1.408       .   S
C1396     N1431 1.361       .   D
C1396     C1448 1.475       .   S
C1397     C1398 1.401       .   D
C1397     H1451 1.083       .   S
C1398     C1399 1.400       .   S
C1398     H1452 1.083       .   S
C1400     C1399 1.407       .   D
C1407     C1399 1.404       .   S
C1400     C1401 1.406       .   S
H1453     C1400 1.083       .   S
C1401     C1402 1.405       .   D
C1401     H1454 1.083       .   S
C1402     C1403 1.406       .   S
C1402     C1406 1.404       .   S
C1403     H1455 1.083       .   S
C1403     C1404 1.406       .   D
C1404     C1405 1.403       .   S
C1404     H1456 1.083       .   S
C1405     N1432 1.355       .   D
C1405     C1409 1.462       .   S
C1406     C1407 1.413       .   D
C1406     N1432 1.357       .   S
N1431     C1407 1.367       .   S
C1408     H1457 1.083       .   S
C1408     C1445 1.476       .   S
N1435     C1408 1.299       .   D
C1409     C1410 1.399       .   D
C1409     C1414 1.400       .   S
C1410     C1411 1.396       .   S
C1410     H1458 1.083       .   S
C1411     C1412 1.404       .   D
C1411     H1459 1.083       .   S
C1412     C1415 1.473       .   S
C1412     C1413 1.406       .   S
C1413     C1414 1.397       .   D
C1413     H1460 1.083       .   S
C1414     H1461 1.083       .   S
C1415     H1462 1.082       .   S
C1415     N1436 1.300       .   D
C1416     C1479 1.467       .   S
C1416     N1433 1.357       .   D
C1416     C1417 1.405       .   S
C1417     C1418 1.403       .   D
C1417     H1463 1.083       .   S
C1418     H1464 1.083       .   S
C1418     C1419 1.403       .   S
C1419     C1427 1.404       .   D
C1420     C1419 1.405       .   S
C1420     C1421 1.404       .   D
C1420     H1465 1.083       .   S
C1421     H1466 1.083       .   S
C1422     C1421 1.406       .   S
C1422     C1423 1.401       .   S
C1422     C1426 1.405       .   D
C1423     C1424 1.402       .   D
C1423     H1467 1.083       .   S
C1424     H1468 1.083       .   S
C1424     C1425 1.406       .   S
C1425     N1434 1.361       .   D
C1425     C1439 1.470       .   S
C1426     C1427 1.414       .   S
C1426     N1434 1.364       .   S
C1427     N1433 1.361       .   S
C1428     H1469 1.083       .   S
C1428     C1482 1.474       .   S
C1428     N1437 1.300       .   D
C1429     N1438 1.300       .   D
C1429     C1442 1.473       .   S
C1429     H1470 1.084       .   S
Cu1430    N1433 1.903       .   S
Cu1430    N1434 1.922       .   S
Cu1430    N1432 1.902       .   S
N1431    Cu1430 1.924       .   S
N1435     C1878 1.421   1_655   S
N1436     C1978 1.630       .   S
N1437     C2109 1.467   1_556   S
N1438     C2078 1.619   1_556   S
C1439     C1444 1.400       .   D
C1440     C1439 1.403       .   S
C1440     H1471 1.084       .   S
C1440     C1441 1.395       .   D
C1441     C1442 1.405       .   S
C1441     H1472 1.083       .   S
C1443     C1442 1.404       .   D
C1443     H1473 1.083       .   S
C1443     C1444 1.397       .   S
C1444     H1474 1.079       .   S
C1445     C1450 1.407       .   S
C1445     C1446 1.403       .   D
C1446     C1447 1.397       .   S
C1446     H1475 1.083       .   S
C1447     C1448 1.404       .   D
C1447     H1476 1.083       .   S
C1448     C1449 1.400       .   S
C1449     H1477 1.077       .   S
C1449     C1450 1.397       .   D
C1450     H1478 1.083       .   S
C1479     C1480 1.398       .   S
C1484     C1479 1.474       .   D
C1480     C1481 1.402       .   D
C1480     H1485 1.083       .   S
C1481     H1486 1.083       .   S
C1482     C1481 1.410       .   S
C1482     C1483 1.402       .   D
C1483     H1487 1.084       .   S
C1483     C1484 1.389       .   S
C1484     H1488 1.083       .   S
C2109     C2119 1.552       .   S
C2109     C2120 1.552       .   S
C2109     C2111 1.552       .   S
H2110     C2119 1.114       .   S
C2111     H2112 1.113       .   S
C2111     H2113 1.113       .   S
C2111     C2114 1.556       .   S
C2114     C2118 1.553       .   S
C2114     H2115 1.113       .   S
C2114     H2116 1.113       .   S
C2117     C2118 1.552       .   S
C2117     C2120 1.552       .   S
C2117     H2121 1.114       .   S
C2117     H2122 1.113       .   S
C2118     C2126 1.551       .   S
C2119     H2123 1.114       .   S
C2119     C2126 1.547       .   S
C2120     H2124 1.114       .   S
C2120     H2125 1.113       .   S
C2126     H2127 1.114       .   S
C2126     H2128 1.114       .   S
C2089     C2099 1.552       .   S
C2089     C2100 1.552       .   S
C2089     C2091 1.552       .   S
H2090     C2099 1.114       .   S
C2091     H2092 1.113       .   S
C2091     H2093 1.113       .   S
C2091     C2094 1.556       .   S
C2094     C2098 1.553       .   S
C2094     H2095 1.113       .   S
C2094     H2096 1.113       .   S
C2097     C2098 1.552       .   S
C2097     C2100 1.552       .   S
C2097     H2101 1.114       .   S
C2097     H2102 1.113       .   S
C2098     C2106 1.551       .   S
C2099     H2103 1.114       .   S
C2099     C2106 1.547       .   S
C2100     H2104 1.114       .   S
C2100     H2105 1.113       .   S
C2106     H2107 1.114       .   S
C2106     H2108 1.114       .   S
C2069     C2079 1.552       .   S
C2069     C2080 1.552       .   S
C2069     C2071 1.552       .   S
H2070     C2079 1.114       .   S
C2071     H2072 1.113       .   S
C2071     H2073 1.113       .   S
C2071     C2074 1.556       .   S
C2074     C2078 1.553       .   S
C2074     H2075 1.113       .   S
C2074     H2076 1.113       .   S
C2077     C2078 1.552       .   S
C2077     C2080 1.552       .   S
C2077     H2081 1.114       .   S
C2077     H2082 1.113       .   S
C2078     C2086 1.551       .   S
C2079     H2083 1.114       .   S
C2079     C2086 1.547       .   S
C2080     H2084 1.114       .   S
C2080     H2085 1.113       .   S
C2086     H2087 1.114       .   S
C2086     H2088 1.114       .   S
C2049     C2059 1.552       .   S
C2049     C2060 1.552       .   S
C2049     C2051 1.552       .   S
H2050     C2059 1.114       .   S
C2051     H2052 1.113       .   S
C2051     H2053 1.113       .   S
C2051     C2054 1.556       .   S
C2054     C2058 1.553       .   S
C2054     H2055 1.113       .   S
C2054     H2056 1.113       .   S
C2057     C2058 1.552       .   S
C2057     C2060 1.552       .   S
C2057     H2061 1.114       .   S
C2057     H2062 1.113       .   S
C2058     C2066 1.551       .   S
C2059     H2063 1.114       .   S
C2059     C2066 1.547       .   S
C2060     H2064 1.114       .   S
C2060     H2065 1.113       .   S
C2066     H2067 1.114       .   S
C2066     H2068 1.114       .   S
C2029     C2039 1.552       .   S
C2029     C2040 1.552       .   S
C2029     C2031 1.552       .   S
H2030     C2039 1.114       .   S
C2031     H2032 1.113       .   S
C2031     H2033 1.113       .   S
C2031     C2034 1.556       .   S
C2034     C2038 1.553       .   S
C2034     H2035 1.113       .   S
C2034     H2036 1.113       .   S
C2037     C2038 1.552       .   S
C2037     C2040 1.552       .   S
C2037     H2041 1.114       .   S
C2037     H2042 1.113       .   S
C2038     C2046 1.551       .   S
C2039     H2043 1.114       .   S
C2039     C2046 1.547       .   S
C2040     H2044 1.114       .   S
C2040     H2045 1.113       .   S
C2046     H2047 1.114       .   S
C2046     H2048 1.114       .   S
C2009     C2019 1.552       .   S
C2009     C2020 1.552       .   S
C2009     C2011 1.552       .   S
H2010     C2019 1.114       .   S
C2011     H2012 1.113       .   S
C2011     H2013 1.113       .   S
C2011     C2014 1.556       .   S
C2014     C2018 1.553       .   S
C2014     H2015 1.113       .   S
C2014     H2016 1.113       .   S
C2017     C2018 1.552       .   S
C2017     C2020 1.552       .   S
C2017     H2021 1.114       .   S
C2017     H2022 1.113       .   S
C2018     C2026 1.551       .   S
C2019     H2023 1.114       .   S
C2019     C2026 1.547       .   S
C2020     H2024 1.114       .   S
C2020     H2025 1.113       .   S
C2026     H2027 1.114       .   S
C2026     H2028 1.114       .   S
C1989     C1999 1.552       .   S
C1989     C2000 1.552       .   S
C1989     C1991 1.552       .   S
H1990     C1999 1.114       .   S
C1991     H1992 1.113       .   S
C1991     H1993 1.113       .   S
C1991     C1994 1.556       .   S
C1994     C1998 1.553       .   S
C1994     H1995 1.113       .   S
C1994     H1996 1.113       .   S
C1997     C1998 1.552       .   S
C1997     C2000 1.552       .   S
C1997     H2001 1.114       .   S
C1997     H2002 1.113       .   S
C1998     C2006 1.551       .   S
C1999     H2003 1.114       .   S
C1999     C2006 1.547       .   S
C2000     H2004 1.114       .   S
C2000     H2005 1.113       .   S
C2006     H2007 1.114       .   S
C2006     H2008 1.114       .   S
C1969     C1979 1.552       .   S
C1969     C1980 1.552       .   S
C1969     C1971 1.552       .   S
H1970     C1979 1.114       .   S
C1971     H1972 1.113       .   S
C1971     H1973 1.113       .   S
C1971     C1974 1.556       .   S
C1974     C1978 1.553       .   S
C1974     H1975 1.113       .   S
C1974     H1976 1.113       .   S
C1977     C1978 1.552       .   S
C1977     C1980 1.552       .   S
C1977     H1981 1.114       .   S
C1977     H1982 1.113       .   S
C1978     C1986 1.551       .   S
C1979     H1983 1.114       .   S
C1979     C1986 1.547       .   S
C1980     H1984 1.114       .   S
C1980     H1985 1.113       .   S
C1986     H1987 1.114       .   S
C1986     H1988 1.114       .   S
C1949     C1959 1.552       .   S
C1949     C1960 1.552       .   S
C1949     C1951 1.552       .   S
H1950     C1959 1.114       .   S
C1951     H1952 1.113       .   S
C1951     H1953 1.113       .   S
C1951     C1954 1.556       .   S
C1954     C1958 1.553       .   S
C1954     H1955 1.113       .   S
C1954     H1956 1.113       .   S
C1957     C1958 1.552       .   S
C1957     C1960 1.552       .   S
C1957     H1961 1.114       .   S
C1957     H1962 1.113       .   S
C1958     C1966 1.551       .   S
C1959     H1963 1.114       .   S
C1959     C1966 1.547       .   S
C1960     H1964 1.114       .   S
C1960     H1965 1.113       .   S
C1966     H1967 1.114       .   S
C1966     H1968 1.114       .   S
C1929     C1939 1.552       .   S
C1929     C1940 1.552       .   S
C1929     C1931 1.552       .   S
H1930     C1939 1.114       .   S
C1931     H1932 1.113       .   S
C1931     H1933 1.113       .   S
C1931     C1934 1.556       .   S
C1934     C1938 1.553       .   S
C1934     H1935 1.113       .   S
C1934     H1936 1.113       .   S
C1937     C1938 1.552       .   S
C1937     C1940 1.552       .   S
C1937     H1941 1.114       .   S
C1937     H1942 1.113       .   S
C1938     C1946 1.551       .   S
C1939     H1943 1.114       .   S
C1939     C1946 1.547       .   S
C1940     H1944 1.114       .   S
C1940     H1945 1.113       .   S
C1946     H1947 1.114       .   S
C1946     H1948 1.114       .   S
C1909     C1919 1.552       .   S
C1909     C1920 1.552       .   S
C1909     C1911 1.552       .   S
H1910     C1919 1.114       .   S
C1911     H1912 1.113       .   S
C1911     H1913 1.113       .   S
C1911     C1914 1.556       .   S
C1914     C1918 1.553       .   S
C1914     H1915 1.113       .   S
C1914     H1916 1.113       .   S
C1917     C1918 1.552       .   S
C1917     C1920 1.552       .   S
C1917     H1921 1.114       .   S
C1917     H1922 1.113       .   S
C1918     C1926 1.551       .   S
C1919     H1923 1.114       .   S
C1919     C1926 1.547       .   S
C1920     H1924 1.114       .   S
C1920     H1925 1.113       .   S
C1926     H1927 1.114       .   S
C1926     H1928 1.114       .   S
C1889     C1899 1.552       .   S
C1889     C1900 1.552       .   S
C1889     C1891 1.552       .   S
H1890     C1899 1.114       .   S
C1891     H1892 1.113       .   S
C1891     H1893 1.113       .   S
C1891     C1894 1.556       .   S
C1894     C1898 1.553       .   S
C1894     H1895 1.113       .   S
C1894     H1896 1.113       .   S
C1897     C1898 1.552       .   S
C1897     C1900 1.552       .   S
C1897     H1901 1.114       .   S
C1897     H1902 1.113       .   S
C1898     C1906 1.551       .   S
C1899     H1903 1.114       .   S
C1899     C1906 1.547       .   S
C1900     H1904 1.114       .   S
C1900     H1905 1.113       .   S
C1906     H1907 1.114       .   S
C1906     H1908 1.114       .   S
C1869     C1879 1.552       .   S
C1869     C1880 1.552       .   S
C1869     C1871 1.552       .   S
H1870     C1879 1.114       .   S
C1871     H1872 1.113       .   S
C1871     H1873 1.113       .   S
C1871     C1874 1.556       .   S
C1874     C1878 1.553       .   S
C1874     H1875 1.113       .   S
C1874     H1876 1.113       .   S
C1877     C1878 1.552       .   S
C1877     C1880 1.552       .   S
C1877     H1881 1.114       .   S
C1877     H1882 1.113       .   S
C1878     C1886 1.551       .   S
C1879     H1883 1.114       .   S
C1879     C1886 1.547       .   S
C1880     H1884 1.114       .   S
C1880     H1885 1.113       .   S
C1886     H1887 1.114       .   S
C1886     H1888 1.114       .   S
C1849     C1859 1.552       .   S
C1849     C1860 1.552       .   S
C1849     C1851 1.552       .   S
H1850     C1859 1.114       .   S
C1851     H1852 1.113       .   S
C1851     H1853 1.113       .   S
C1851     C1854 1.556       .   S
C1854     C1858 1.553       .   S
C1854     H1855 1.113       .   S
C1854     H1856 1.113       .   S
C1857     C1858 1.552       .   S
C1857     C1860 1.552       .   S
C1857     H1861 1.114       .   S
C1857     H1862 1.113       .   S
C1858     C1866 1.551       .   S
C1859     H1863 1.114       .   S
C1859     C1866 1.547       .   S
C1860     H1864 1.114       .   S
C1860     H1865 1.113       .   S
C1866     H1867 1.114       .   S
C1866     H1868 1.114       .   S
C1829     C1839 1.552       .   S
C1829     C1840 1.552       .   S
C1829     C1831 1.552       .   S
H1830     C1839 1.114       .   S
C1831     H1832 1.113       .   S
C1831     H1833 1.113       .   S
C1831     C1834 1.556       .   S
C1834     C1838 1.553       .   S
C1834     H1835 1.113       .   S
C1834     H1836 1.113       .   S
C1837     C1838 1.552       .   S
C1837     C1840 1.552       .   S
C1837     H1841 1.114       .   S
C1837     H1842 1.113       .   S
C1838     C1846 1.551       .   S
C1839     H1843 1.114       .   S
C1839     C1846 1.547       .   S
C1840     H1844 1.114       .   S
C1840     H1845 1.113       .   S
C1846     H1847 1.114       .   S
C1846     H1848 1.114       .   S
C1809     C1819 1.552       .   S
C1809     C1820 1.552       .   S
C1809     C1811 1.552       .   S
H1810     C1819 1.114       .   S
C1811     H1812 1.113       .   S
C1811     H1813 1.113       .   S
C1811     C1814 1.556       .   S
C1814     C1818 1.553       .   S
C1814     H1815 1.113       .   S
C1814     H1816 1.113       .   S
C1817     C1818 1.552       .   S
C1817     C1820 1.552       .   S
C1817     H1821 1.114       .   S
C1817     H1822 1.113       .   S
C1818     C1826 1.551       .   S
C1819     H1823 1.114       .   S
C1819     C1826 1.547       .   S
C1820     H1824 1.114       .   S
C1820     H1825 1.113       .   S
C1826     H1827 1.114       .   S
C1826     H1828 1.114       .   S
C1789     C1799 1.552       .   S
C1789     C1800 1.552       .   S
C1789     C1791 1.552       .   S
H1790     C1799 1.114       .   S
C1791     H1792 1.113       .   S
C1791     H1793 1.113       .   S
C1791     C1794 1.556       .   S
C1794     C1798 1.553       .   S
C1794     H1795 1.113       .   S
C1794     H1796 1.113       .   S
C1797     C1798 1.552       .   S
C1797     C1800 1.552       .   S
C1797     H1801 1.114       .   S
C1797     H1802 1.113       .   S
C1798     C1806 1.551       .   S
C1799     H1803 1.114       .   S
C1799     C1806 1.547       .   S
C1800     H1804 1.114       .   S
C1800     H1805 1.113       .   S
C1806     H1807 1.114       .   S
C1806     H1808 1.114       .   S
C1769     C1779 1.552       .   S
C1769     C1780 1.552       .   S
C1769     C1771 1.552       .   S
H1770     C1779 1.114       .   S
C1771     H1772 1.113       .   S
C1771     H1773 1.113       .   S
C1771     C1774 1.556       .   S
C1774     C1778 1.553       .   S
C1774     H1775 1.113       .   S
C1774     H1776 1.113       .   S
C1777     C1778 1.552       .   S
C1777     C1780 1.552       .   S
C1777     H1781 1.114       .   S
C1777     H1782 1.113       .   S
C1778     C1786 1.551       .   S
C1779     H1783 1.114       .   S
C1779     C1786 1.547       .   S
C1780     H1784 1.114       .   S
C1780     H1785 1.113       .   S
C1786     H1787 1.114       .   S
C1786     H1788 1.114       .   S
C1749     C1759 1.552       .   S
C1749     C1760 1.552       .   S
C1749     C1751 1.552       .   S
H1750     C1759 1.114       .   S
C1751     H1752 1.113       .   S
C1751     H1753 1.113       .   S
C1751     C1754 1.556       .   S
C1754     C1758 1.553       .   S
C1754     H1755 1.113       .   S
C1754     H1756 1.113       .   S
C1757     C1758 1.552       .   S
C1757     C1760 1.552       .   S
C1757     H1761 1.114       .   S
C1757     H1762 1.113       .   S
C1758     C1766 1.551       .   S
C1759     H1763 1.114       .   S
C1759     C1766 1.547       .   S
C1760     H1764 1.114       .   S
C1760     H1765 1.113       .   S
C1766     H1767 1.114       .   S
C1766     H1768 1.114       .   S
C1729     C1739 1.552       .   S
C1729     C1740 1.552       .   S
C1729     C1731 1.552       .   S
H1730     C1739 1.114       .   S
C1731     H1732 1.113       .   S
C1731     H1733 1.113       .   S
C1731     C1734 1.556       .   S
C1734     C1738 1.553       .   S
C1734     H1735 1.113       .   S
C1734     H1736 1.113       .   S
C1737     C1738 1.552       .   S
C1737     C1740 1.552       .   S
C1737     H1741 1.114       .   S
C1737     H1742 1.113       .   S
C1738     C1746 1.551       .   S
C1739     H1743 1.114       .   S
C1739     C1746 1.547       .   S
C1740     H1744 1.114       .   S
C1740     H1745 1.113       .   S
C1746     H1747 1.114       .   S
C1746     H1748 1.114       .   S
C1709     C1719 1.552       .   S
C1709     C1720 1.552       .   S
C1709     C1711 1.552       .   S
H1710     C1719 1.114       .   S
C1711     H1712 1.113       .   S
C1711     H1713 1.113       .   S
C1711     C1714 1.556       .   S
C1714     C1718 1.553       .   S
C1714     H1715 1.113       .   S
C1714     H1716 1.113       .   S
C1717     C1718 1.552       .   S
C1717     C1720 1.552       .   S
C1717     H1721 1.114       .   S
C1717     H1722 1.113       .   S
C1718     C1726 1.551       .   S
C1719     H1723 1.114       .   S
C1719     C1726 1.547       .   S
C1720     H1724 1.114       .   S
C1720     H1725 1.113       .   S
C1726     H1727 1.114       .   S
C1726     H1728 1.114       .   S
C1689     C1699 1.552       .   S
C1689     C1700 1.552       .   S
C1689     C1691 1.552       .   S
H1690     C1699 1.114       .   S
C1691     H1692 1.113       .   S
C1691     H1693 1.113       .   S
C1691     C1694 1.556       .   S
C1694     C1698 1.553       .   S
C1694     H1695 1.113       .   S
C1694     H1696 1.113       .   S
C1697     C1698 1.552       .   S
C1697     C1700 1.552       .   S
C1697     H1701 1.114       .   S
C1697     H1702 1.113       .   S
C1698     C1706 1.551       .   S
C1699     H1703 1.114       .   S
C1699     C1706 1.547       .   S
C1700     H1704 1.114       .   S
C1700     H1705 1.113       .   S
C1706     H1707 1.114       .   S
C1706     H1708 1.114       .   S
C1669     C1679 1.552       .   S
C1669     C1680 1.552       .   S
C1669     C1671 1.552       .   S
H1670     C1679 1.114       .   S
C1671     H1672 1.113       .   S
C1671     H1673 1.113       .   S
C1671     C1674 1.556       .   S
C1674     C1678 1.553       .   S
C1674     H1675 1.113       .   S
C1674     H1676 1.113       .   S
C1677     C1678 1.552       .   S
C1677     C1680 1.552       .   S
C1677     H1681 1.114       .   S
C1677     H1682 1.113       .   S
C1678     C1686 1.551       .   S
C1679     H1683 1.114       .   S
C1679     C1686 1.547       .   S
C1680     H1684 1.114       .   S
C1680     H1685 1.113       .   S
C1686     H1687 1.114       .   S
C1686     H1688 1.114       .   S
C1649     C1659 1.552       .   S
C1649     C1660 1.552       .   S
C1649     C1651 1.552       .   S
H1650     C1659 1.114       .   S
C1651     H1652 1.113       .   S
C1651     H1653 1.113       .   S
C1651     C1654 1.556       .   S
C1654     C1658 1.553       .   S
C1654     H1655 1.113       .   S
C1654     H1656 1.113       .   S
C1657     C1658 1.552       .   S
C1657     C1660 1.552       .   S
C1657     H1661 1.114       .   S
C1657     H1662 1.113       .   S
C1658     C1666 1.551       .   S
C1659     H1663 1.114       .   S
C1659     C1666 1.547       .   S
C1660     H1664 1.114       .   S
C1660     H1665 1.113       .   S
C1666     H1667 1.114       .   S
C1666     H1668 1.114       .   S
C1629     C1639 1.552       .   S
C1629     C1640 1.552       .   S
C1629     C1631 1.552       .   S
H1630     C1639 1.114       .   S
C1631     H1632 1.113       .   S
C1631     H1633 1.113       .   S
C1631     C1634 1.556       .   S
C1634     C1638 1.553       .   S
C1634     H1635 1.113       .   S
C1634     H1636 1.113       .   S
C1637     C1638 1.552       .   S
C1637     C1640 1.552       .   S
C1637     H1641 1.114       .   S
C1637     H1642 1.113       .   S
C1638     C1646 1.551       .   S
C1639     H1643 1.114       .   S
C1639     C1646 1.547       .   S
C1640     H1644 1.114       .   S
C1640     H1645 1.113       .   S
C1646     H1647 1.114       .   S
C1646     H1648 1.114       .   S
C1609     C1619 1.552       .   S
C1609     C1620 1.552       .   S
C1609     C1611 1.552       .   S
H1610     C1619 1.114       .   S
C1611     H1612 1.113       .   S
C1611     H1613 1.113       .   S
C1611     C1614 1.556       .   S
C1614     C1618 1.553       .   S
C1614     H1615 1.113       .   S
C1614     H1616 1.113       .   S
C1617     C1618 1.552       .   S
C1617     C1620 1.552       .   S
C1617     H1621 1.114       .   S
C1617     H1622 1.113       .   S
C1618     C1626 1.551       .   S
C1619     H1623 1.114       .   S
C1619     C1626 1.547       .   S
C1620     H1624 1.114       .   S
C1620     H1625 1.113       .   S
C1626     H1627 1.114       .   S
C1626     H1628 1.114       .   S
C1589     C1599 1.552       .   S
C1589     C1600 1.552       .   S
C1589     C1591 1.552       .   S
H1590     C1599 1.114       .   S
C1591     H1592 1.113       .   S
C1591     H1593 1.113       .   S
C1591     C1594 1.556       .   S
C1594     C1598 1.553       .   S
C1594     H1595 1.113       .   S
C1594     H1596 1.113       .   S
C1597     C1598 1.552       .   S
C1597     C1600 1.552       .   S
C1597     H1601 1.114       .   S
C1597     H1602 1.113       .   S
C1598     C1606 1.551       .   S
C1599     H1603 1.114       .   S
C1599     C1606 1.547       .   S
C1600     H1604 1.114       .   S
C1600     H1605 1.113       .   S
C1606     H1607 1.114       .   S
C1606     H1608 1.114       .   S
C1569     C1579 1.552       .   S
C1569     C1580 1.552       .   S
C1569     C1571 1.552       .   S
H1570     C1579 1.114       .   S
C1571     H1572 1.113       .   S
C1571     H1573 1.113       .   S
C1571     C1574 1.556       .   S
C1574     C1578 1.553       .   S
C1574     H1575 1.113       .   S
C1574     H1576 1.113       .   S
C1577     C1578 1.552       .   S
C1577     C1580 1.552       .   S
C1577     H1581 1.114       .   S
C1577     H1582 1.113       .   S
C1578     C1586 1.551       .   S
C1579     H1583 1.114       .   S
C1579     C1586 1.547       .   S
C1580     H1584 1.114       .   S
C1580     H1585 1.113       .   S
C1586     H1587 1.114       .   S
C1586     H1588 1.114       .   S
C1549     C1559 1.552       .   S
C1549     C1560 1.552       .   S
C1549     C1551 1.552       .   S
H1550     C1559 1.114       .   S
C1551     H1552 1.113       .   S
C1551     H1553 1.113       .   S
C1551     C1554 1.556       .   S
C1554     C1558 1.553       .   S
C1554     H1555 1.113       .   S
C1554     H1556 1.113       .   S
C1557     C1558 1.552       .   S
C1557     C1560 1.552       .   S
C1557     H1561 1.114       .   S
C1557     H1562 1.113       .   S
C1558     C1566 1.551       .   S
C1559     H1563 1.114       .   S
C1559     C1566 1.547       .   S
C1560     H1564 1.114       .   S
C1560     H1565 1.113       .   S
C1566     H1567 1.114       .   S
C1566     H1568 1.114       .   S
C1529     C1539 1.552       .   S
C1529     C1540 1.552       .   S
C1529     C1531 1.552       .   S
H1530     C1539 1.114       .   S
C1531     H1532 1.113       .   S
C1531     H1533 1.113       .   S
C1531     C1534 1.556       .   S
C1534     C1538 1.553       .   S
C1534     H1535 1.113       .   S
C1534     H1536 1.113       .   S
C1537     C1538 1.552       .   S
C1537     C1540 1.552       .   S
C1537     H1541 1.114       .   S
C1537     H1542 1.113       .   S
C1538     C1546 1.551       .   S
C1539     H1543 1.114       .   S
C1539     C1546 1.547       .   S
C1540     H1544 1.114       .   S
C1540     H1545 1.113       .   S
C1546     H1547 1.114       .   S
C1546     H1548 1.114       .   S
C1509     C1519 1.552       .   S
C1509     C1520 1.552       .   S
C1509     C1511 1.552       .   S
H1510     C1519 1.114       .   S
C1511     H1512 1.113       .   S
C1511     H1513 1.113       .   S
C1511     C1514 1.556       .   S
C1514     C1518 1.553       .   S
C1514     H1515 1.113       .   S
C1514     H1516 1.113       .   S
C1517     C1518 1.552       .   S
C1517     C1520 1.552       .   S
C1517     H1521 1.114       .   S
C1517     H1522 1.113       .   S
C1518     C1526 1.551       .   S
C1519     H1523 1.114       .   S
C1519     C1526 1.547       .   S
C1520     H1524 1.114       .   S
C1520     H1525 1.113       .   S
C1526     H1527 1.114       .   S
C1526     H1528 1.114       .   S
C1489     C1499 1.552       .   S
C1489     C1500 1.552       .   S
C1489     C1491 1.552       .   S
H1490     C1499 1.114       .   S
C1491     H1492 1.113       .   S
C1491     H1493 1.113       .   S
C1491     C1494 1.556       .   S
C1494     C1498 1.553       .   S
C1494     H1495 1.113       .   S
C1494     H1496 1.113       .   S
C1497     C1498 1.552       .   S
C1497     C1500 1.552       .   S
C1497     H1501 1.114       .   S
C1497     H1502 1.113       .   S
C1498     C1506 1.551       .   S
C1499     H1503 1.114       .   S
C1499     C1506 1.547       .   S
C1500     H1504 1.114       .   S
C1500     H1505 1.113       .   S
C1506     H1507 1.114       .   S
C1506     H1508 1.114       .   S
