data_pcu_v1-6c_Al_1_1-1B_1TrU
_audit_creation_date              2023-06-26
_audit_creation_method            'newmof'
_symmetry_space_group_name_H-M    'P1'
_symmetry_Int_Tables_number       1
_symmetry_cell_setting            triclinic
loop_
_symmetry_equiv_pos_as_xyz
  x,y,z
_cell_length_a                    28.529437612379326
_cell_length_b                    28.45157968120992
_cell_length_c                    28.596893106076912
_cell_angle_alpha                 89.89845240344489
_cell_angle_beta                  88.7547463737348
_cell_angle_gamma                 91.06535537574726
loop_
_atom_site_label
_atom_site_type_symbol
_atom_site_fract_x
_atom_site_fract_y
_atom_site_fract_z
_atom_site_charge
O1         O    0.9581664275    0.0628088016    0.9479600559         -0.0545
O2         O    0.0533391095    0.9605862327    0.9349714565         -0.0545
O3         O    0.0634716001    0.0551681253    0.0390568403         -0.0545
O4         O    0.9936549860    0.0919291872    0.0103566165         -0.0545
O5         O    0.0920261156    0.9923300670    0.0029905199         -0.0545
O6         O    0.9892960355    0.9943039054    0.9086412163         -0.0545
C7         C    0.9744390539    0.0973914220    0.9710425228         -0.0545
C8         C    0.0293889095    0.9764668616    0.9016370693         -0.0545
C9         C    0.0976855281    0.0325027643    0.0217119278         -0.0545
O10        O    0.9081782249    0.0104335210    0.9999647502         -0.0545
O11        O    0.0033509069    0.9082109520    0.9869761509         -0.0545
O12        O    0.0134833976    0.0027928447    0.0910615346         -0.0545
O13        O    0.9436667834    0.0395539065    0.0623613108         -0.0545
O14        O    0.0420379131    0.9399547864    0.0549952143         -0.0545
O15        O    0.9393078329    0.9419286248    0.9606459106         -0.0545
Al16      Al    0.9551936368    0.0020699075    0.9600519754             1.0
Al17      Al    0.0416911247    0.9565290431    0.9956126774             1.0
Al18      Al    0.0031237868    0.0414016659    0.0443258822             1.0
O19        O    0.0000045717    0.0000001260    0.9999983803         -0.0545
C20        C    0.9067633929    0.0264840567    0.0414481762         -0.0545
C21        C    0.9617132486    0.9055594963    0.9720427227         -0.0545
C22        C    0.0300098671    0.9615953991    0.0921175812         -0.0545
O23        O    0.0673059295    0.0227730166    0.4127851178         -0.0545
O24        O    0.9668676037    0.0256596061    0.5138666762         -0.0545
O25        O    0.9660953386    0.9221875632    0.4179381326         -0.0545
O26        O    0.0361787762    0.9576862579    0.3824581722         -0.0545
O27        O    0.9329349798    0.9547078703    0.4808075515         -0.0545
O28        O    0.0311551158    0.0582260578    0.4813242029         -0.0545
C29        C    0.0537920168    0.9988776837    0.3778557660         -0.0545
C30        C    0.9899787495    0.0614592457    0.4988406764         -0.0545
C31        C    0.9300750138    0.9362070992    0.4404828490         -0.0545
O32        O    0.1170811330    0.9739195798    0.4644305304         -0.0545
O33        O    0.0166428073    0.9768061693    0.5655120889         -0.0545
O34        O    0.0158705421    0.8733341264    0.4695835452         -0.0545
O35        O    0.0859539797    0.9088328211    0.4341035848         -0.0545
O36        O    0.9827101834    0.9058544335    0.5324529641         -0.0545
O37        O    0.0809303194    0.0093726210    0.5329696155         -0.0545
Al38      Al    0.0679283468    0.0097447892    0.4730217792             1.0
Al39      Al    0.9811005956    0.9657613505    0.5169754176             1.0
Al40      Al    0.0258888449    0.9218375910    0.4320604373             1.0
O41        O    0.0249709447    0.9657795538    0.4740192497         -0.0545
C42        C    0.1211793128    0.9327383056    0.4477750121         -0.0545
C43        C    0.0573660455    0.9953198677    0.5687599225         -0.0545
C44        C    0.9974623098    0.8700677211    0.5104020951         -0.0545
O45        O    0.9174234221    0.5166603368    0.9423405944         -0.0545
O46        O    0.9178820624    0.6159543136    0.0425533243         -0.0545
O47        O    0.8168577046    0.5151553533    0.0434116576         -0.0545
O48        O    0.8531566004    0.4826830907    0.9734538100         -0.0545
O49        O    0.8478241342    0.5789159478    0.0764707533         -0.0545
O50        O    0.9511824546    0.5861709652    0.9783810129         -0.0545
C51        C    0.8767388854    0.4982653667    0.9382953762         -0.0545
C52        C    0.9363301902    0.6209652412    0.0019137745         -0.0545
C53        C    0.8126558490    0.5555827630    0.0617906821         -0.0545
O54        O    0.9672270028    0.4657067111    0.9919133505         -0.0545
O55        O    0.9676856430    0.5650006879    0.0921260805         -0.0545
O56        O    0.8666612852    0.4642017276    0.0929844138         -0.0545
O57        O    0.9029601810    0.4317294650    0.0230265662         -0.0545
O58        O    0.8976277148    0.5279623221    0.1260435095         -0.0545
O59        O    0.0009860352    0.5352173395    0.0279537691         -0.0545
Al60      Al    0.9528782702    0.5256718213    0.9913246198             1.0
Al61      Al    0.9079035278    0.5658990038    0.0779967780             1.0
Al62      Al    0.8660785228    0.4797803515    0.0333453003             1.0
O63        O    0.9089517520    0.5237836530    0.0342238815         -0.0545
C64        C    0.9441645992    0.4292826843    0.0054085923         -0.0545
C65        C    0.0037559040    0.5519825589    0.0690269906         -0.0545
C66        C    0.8800815629    0.4866000807    0.1289038981         -0.0545
O67        O    0.9937113368    0.5238183635    0.4928348929         -0.0545
O68        O    0.9910156785    0.4220763590    0.5910217041         -0.0545
O69        O    0.8924432997    0.5216124935    0.5932072724         -0.0545
O70        O    0.9300456449    0.5562438364    0.5241763415         -0.0545
O71        O    0.9216130297    0.4574231063    0.6251879204         -0.0545
O72        O    0.0255116404    0.4538402732    0.5276996075         -0.0545
C73        C    0.9714377939    0.5596258329    0.5069040117         -0.0545
C74        C    0.0275715586    0.4361007966    0.5684470622         -0.0545
C75        C    0.9050539312    0.4984969869    0.6287631185         -0.0545
O76        O    0.9430318912    0.4734812608    0.4418778307         -0.0545
O77        O    0.9403362329    0.3717392562    0.5400646420         -0.0545
O78        O    0.8417638541    0.4712753908    0.5422502103         -0.0545
O79        O    0.8793661993    0.5059067337    0.4732192794         -0.0545
O80        O    0.8709335841    0.4070860036    0.5742308582         -0.0545
O81        O    0.9748321948    0.4035031705    0.4767425453         -0.0545
Al82      Al    0.9779106930    0.4637027816    0.4909297913             1.0
Al83      Al    0.9313211628    0.4208006310    0.5764536183             1.0
Al84      Al    0.8919228816    0.5074984349    0.5332587529             1.0
O85        O    0.9337165473    0.4640006273    0.5335490255         -0.0545
C86        C    0.9028263055    0.4914778195    0.4379166769         -0.0545
C87        C    0.9589600702    0.3679527831    0.4994597274         -0.0545
C88        C    0.8364424428    0.4303489735    0.5597757837         -0.0545
O89        O    0.5162717819    0.9567820545    0.1248790781         -0.0545
O90        O    0.5175746878    0.0584795228    0.0266752547         -0.0545
O91        O    0.6168527359    0.9596543200    0.0238249233         -0.0545
O92        O    0.5799625587    0.9247962424    0.0931086298         -0.0545
O93        O    0.5870046738    0.0236120540    0.9920413814         -0.0545
O94        O    0.4837319731    0.0265076008    0.0902292448         -0.0545
C95        C    0.5566403374    0.9390743246    0.1285647786         -0.0545
C96        C    0.4992012011    0.0621535713    0.0674010359         -0.0545
C97        C    0.6217670603    0.0006034581    0.0062594170         -0.0545
O98        O    0.4655805303    0.9060698379    0.0742884512         -0.0545
O99        O    0.4668834362    0.0077673061    0.9760846278         -0.0545
O100       O    0.5661614843    0.9089421033    0.9732342964         -0.0545
O101       O    0.5292713071    0.8740840258    0.0425180029         -0.0545
O102       O    0.5363134222    0.9728998374    0.9414507545         -0.0545
O103       O    0.4330407215    0.9757953841    0.0396386179         -0.0545
Al104     Al    0.4809806094    0.9662927165    0.0760789850             1.0
Al105     Al    0.5266878441    0.0094757966    0.9902419674             1.0
Al106     Al    0.5670023190    0.9230908765    0.0331706103             1.0
O107       O    0.5248919452    0.9662864630    0.0331622048         -0.0545
C108       C    0.4880128657    0.8704184696    0.0600735359         -0.0545
C109       C    0.4305737294    0.9934977164    0.9989097931         -0.0545
C110       C    0.5531395885    0.9319476031    0.9377681743         -0.0545
O111       O    0.4553823252    0.8679315858    0.5882270244         -0.0545
O112       O    0.5526029421    0.9719897125    0.5954522612         -0.0545
O113       O    0.5594329939    0.8774103254    0.4910141465         -0.0545
O114       O    0.4893901014    0.8393726632    0.5238476953         -0.0545
O115       O    0.5896757440    0.9408579455    0.5252717274         -0.0545
O116       O    0.4883524157    0.9371010151    0.6255740095         -0.0545
C117       C    0.4706688775    0.8336118372    0.5642761002         -0.0545
C118       C    0.5288675452    0.9557094286    0.6302008442         -0.0545
C119       C    0.5943146237    0.9007540534    0.5063101966         -0.0545
O120       O    0.4055891357    0.9192866218    0.5390538463         -0.0545
O121       O    0.5028097526    0.0233447485    0.5462790831         -0.0545
O122       O    0.5096398044    0.9287653615    0.4418409684         -0.0545
O123       O    0.4395969120    0.8907276992    0.4746745172         -0.0545
O124       O    0.5398825546    0.9922129815    0.4760985492         -0.0545
O125       O    0.4385592262    0.9884560511    0.5764008313         -0.0545
Al126     Al    0.4533447929    0.9286050197    0.5761903607             1.0
Al127     Al    0.5401225121    0.9757274891    0.5355087908             1.0
Al128     Al    0.4992749493    0.8900315578    0.4892385715             1.0
O129       O    0.4975824516    0.9314547984    0.5336442725         -0.0545
C130       C    0.4032572316    0.9031379620    0.4977038458         -0.0545
C131       C    0.4614558993    0.0252355534    0.5636285898         -0.0545
C132       C    0.5269029778    0.9702801782    0.4397379422         -0.0545
O133       O    0.3408849041    0.4557857049    0.0759422308         -0.0545
O134       O    0.4421592439    0.4521676313    0.9757340087         -0.0545
O135       O    0.4413728232    0.5570747236    0.0701097770         -0.0545
O136       O    0.3712733319    0.5215642492    0.1055456027         -0.0545
O137       O    0.4752865804    0.5238734854    0.0080043634         -0.0545
O138       O    0.3778570589    0.4195903252    0.0082360503         -0.0545
C139       C    0.3363423086    0.4971763583    0.0919433362         -0.0545
C140       C    0.4016054038    0.4332844233    0.9724286656         -0.0545
C141       C    0.4600875693    0.5598678125    0.0293940819         -0.0545
O142       O    0.3906006941    0.4081258327    0.1287351391         -0.0545
O143       O    0.4918750339    0.4045077591    0.0285269170         -0.0545
O144       O    0.4910886132    0.5094148515    0.1229026852         -0.0545
O145       O    0.4209891220    0.4739043770    0.1583385110         -0.0545
O146       O    0.5250023704    0.4762136133    0.0607972717         -0.0545
O147       O    0.4275728489    0.3719304530    0.0610289586         -0.0545
Al148     Al    0.3903677755    0.4202354834    0.0682927592             1.0
Al149     Al    0.4772153644    0.4642335637    0.0243937486             1.0
Al150     Al    0.4314095327    0.5090770272    0.1082768202             1.0
O151       O    0.4329991960    0.4645170600    0.0669877258         -0.0545
C152       C    0.4036491686    0.4326528671    0.1634160993         -0.0545
C153       C    0.4689122638    0.3687609320    0.0439014288         -0.0545
C154       C    0.5273944293    0.4953443212    0.1008668451         -0.0545
O155       O    0.4142978344    0.3932990361    0.5009170099         -0.0545
O156       O    0.4172862517    0.4967966790    0.5967788571         -0.0545
O157       O    0.3140263137    0.3983333673    0.6020291302         -0.0545
O158       O    0.3493773588    0.3620930161    0.5335031798         -0.0545
O159       O    0.3465157835    0.4627792803    0.6323019432         -0.0545
O160       O    0.4497172574    0.4635567860    0.5339198743         -0.0545
C161       C    0.3732084491    0.3756424371    0.4976956587         -0.0545
C162       C    0.4357306684    0.4996611275    0.5559521787         -0.0545
C163       C    0.3107985185    0.4396116910    0.6186634934         -0.0545
O164       O    0.4630359591    0.3433958455    0.5525772522         -0.0545
O165       O    0.4660243764    0.4468934884    0.6484390993         -0.0545
O166       O    0.3627644384    0.3484301768    0.6536893725         -0.0545
O167       O    0.3981154836    0.3121898255    0.5851634220         -0.0545
O168       O    0.3952539083    0.4128760897    0.6839621854         -0.0545
O169       O    0.4984553821    0.4136535954    0.5855801165         -0.0545
Al170     Al    0.4500642480    0.4036130713    0.5494361423             1.0
Al171     Al    0.4062637421    0.4485086890    0.6343344405             1.0
Al172     Al    0.3623816331    0.3614644070    0.5934462733             1.0
O173       O    0.4062348565    0.4045287576    0.5924072702         -0.0545
C174       C    0.4391917139    0.3080818681    0.5676349816         -0.0545
C175       C    0.5017139333    0.4321005585    0.6258915016         -0.0545
C176       C    0.3767817833    0.3720511220    0.6886028163         -0.0545
C453       C    0.3891864743    0.4027225868    0.8305039514         -0.0545
C454       C    0.4093521959    0.4507227583    0.8457959520         -0.0545
C455       C    0.4139312571    0.4619913080    0.8981698526         -0.0545
C456       C    0.3800334668    0.3800721645    0.7257815922         -0.0545
C457       C    0.3781750924    0.3772684732    0.9199581166         -0.0545
C458       C    0.3735895781    0.3660025554    0.8675843297         -0.0545
C459       C    0.3846160906    0.3914208348    0.7781367064         -0.0545
C460       C    0.3983537203    0.4252633809    0.9352498898         -0.0545
H461       H    0.4208848519    0.4779233421    0.8183629224         -0.0545
H462       H    0.4288529673    0.4975273589    0.9095067330         -0.0545
H463       H    0.3666361519    0.3500889547    0.9474014197         -0.0545
H464       H    0.3586485085    0.3304744004    0.8562477904         -0.0545
C441       C    0.3884836156    0.4041352100    0.3305582713         -0.0545
C442       C    0.4354762400    0.4221931693    0.3092290548         -0.0545
C443       C    0.4402740851    0.4312363218    0.2562137306         -0.0545
C444       C    0.3787736573    0.3860651510    0.4365822758         -0.0545
C445       C    0.3510953769    0.4041589379    0.2458567670         -0.0545
C446       C    0.3462995522    0.3951091573    0.2988711254         -0.0545
C447       C    0.3836530091    0.3951039014    0.3835729184         -0.0545
C448       C    0.3980839604    0.4222301531    0.2245294822         -0.0545
H449       H    0.4667181528    0.4288619782    0.3326661666         -0.0545
H450       H    0.4750615580    0.4445992017    0.2404070481         -0.0545
H451       H    0.3198723342    0.3974833103    0.2224057697         -0.0545
H452       H    0.3115181408    0.3817263935    0.3146749106         -0.0545
C429       C    0.4532282109    0.6666334279    0.5601621323         -0.0545
C430       C    0.4906908593    0.6355010593    0.5817826787         -0.0545
C431       C    0.4850313166    0.5815886551    0.5804162351         -0.0545
C432       C    0.4644808822    0.7744649756    0.5628018292         -0.0545
C433       C    0.4044490466    0.5899406049    0.5358181872         -0.0545
C434       C    0.4101051049    0.6438531326    0.5371907727         -0.0545
C435       C    0.4588739921    0.7205474892    0.5614967643         -0.0545
C436       C    0.4419186637    0.5588079891    0.5574264497         -0.0545
H437       H    0.5226085694    0.6523458780    0.5988076233         -0.0545
H438       H    0.5127556896    0.5585264888    0.5964253975         -0.0545
H439       H    0.3725352146    0.5730809967    0.5188119824         -0.0545
H440       H    0.3823702788    0.6669156696    0.5212000361         -0.0545
C417       C    0.4502877900    0.1666537417    0.5656758308         -0.0545
C418       C    0.4044905677    0.1891004843    0.5832482578         -0.0545
C419       C    0.4002722357    0.2429793669    0.5839913264         -0.0545
C420       C    0.4588054704    0.0589068520    0.5641055287         -0.0545
C421       C    0.4876442497    0.2519641166    0.5495986198         -0.0545
C422       C    0.4918650240    0.1980853788    0.5488620532         -0.0545
C423       C    0.4545249585    0.1127775950    0.5649029493         -0.0545
C424       C    0.4418421428    0.2744105694    0.5671580427         -0.0545
H425       H    0.3737104457    0.1658506730    0.5957158199         -0.0545
H426       H    0.3663742564    0.2596127098    0.5970051518         -0.0545
H427       H    0.5184148517    0.2752266011    0.5371494996         -0.0545
H428       H    0.5257703302    0.1814524706    0.5358677340         -0.0545
C405       C    0.4740102408    0.7151492503    0.0446953775         -0.0545
C406       C    0.4640801230    0.7475275946    0.0029994898         -0.0545
C407       C    0.4689279440    0.8012406147    0.0083297216         -0.0545
C408       C    0.4643896795    0.6077105689    0.0341204916         -0.0545
C409       C    0.4936274032    0.7901979416    0.0970471179         -0.0545
C410       C    0.4887728472    0.7364852079    0.0917189382         -0.0545
C411       C    0.4691900743    0.6614325347    0.0393856408         -0.0545
C412       C    0.4837107555    0.8225757133    0.0553471262         -0.0545
H413       H    0.4531330292    0.7317532465    0.9681897008         -0.0545
H414       H    0.4615725910    0.8252253922    0.9774703706         -0.0545
H415       H    0.5045584950    0.8059882587    0.1318488387         -0.0545
H416       H    0.4961079951    0.7125012895    0.1225844453         -0.0545
C393       C    0.4840131103    0.2154540601    0.0556879799         -0.0545
C394       C    0.4354429128    0.2374669407    0.0624851618         -0.0545
C395       C    0.4301729436    0.2910771590    0.0583608230         -0.0545
C396       C    0.4946482944    0.1082415106    0.0638686730         -0.0545
C397       C    0.5220376205    0.3006614459    0.0406503046         -0.0545
C398       C    0.5273087158    0.2470518945    0.0447814908         -0.0545
C399       C    0.4893072019    0.1618451892    0.0597864290         -0.0545
C400       C    0.4734651705    0.3226729927    0.0474337917         -0.0545
H401       H    0.4033864061    0.2140953894    0.0705776834         -0.0545
H402       H    0.3942207433    0.3073897898    0.0633975405         -0.0545
H403       H    0.5540810210    0.3240465545    0.0325731285         -0.0545
H404       H    0.5632642949    0.2307412643    0.0397653156         -0.0545
C381       C    0.5410041710    0.9437721046    0.7839793282         -0.0545
C382       C    0.5204641550    0.9003088493    0.8098566238         -0.0545
C383       C    0.5246859413    0.8962098498    0.8632995174         -0.0545
C384       C    0.5325689070    0.9520858724    0.6771032805         -0.0545
C385       C    0.5699904649    0.9790279078    0.8649867080         -0.0545
C386       C    0.5657747897    0.9831236540    0.8115429472         -0.0545
C387       C    0.5367776744    0.9479056630    0.7305400146         -0.0545
C388       C    0.5494382267    0.9355711593    0.8908657379         -0.0545
H389       H    0.5021417726    0.8711611306    0.7894678520         -0.0545
H390       H    0.5094898051    0.8640338102    0.8824709884         -0.0545
H391       H    0.5883192377    0.0081554389    0.8853871306         -0.0545
H392       H    0.5809892592    0.0152899334    0.7923688747         -0.0545
C369       C    0.5417741219    0.9546209111    0.2841565161         -0.0545
C370       C    0.5178563044    0.9152722502    0.3135988110         -0.0545
C371       C    0.5127530209    0.9206609922    0.3670337472         -0.0545
C372       C    0.5519851559    0.9439593889    0.1772768228         -0.0545
C373       C    0.5554883829    0.0047377071    0.3615851647         -0.0545
C374       C    0.5605978695    0.9993459312    0.3081510093         -0.0545
C375       C    0.5468715665    0.9492665306    0.2307180761         -0.0545
C376       C    0.5315581594    0.9653951139    0.3910258981         -0.0545
H377       H    0.5039334839    0.8821504550    0.2958572409         -0.0545
H378       H    0.4950535909    0.8915339854    0.3888456684         -0.0545
H379       H    0.5694157893    0.0378419839    0.3793427684         -0.0545
H380       H    0.5783159086    0.0284638366    0.2863414305         -0.0545
C357       C    0.6690718209    0.4312578781    0.5927884906         -0.0545
C358       C    0.6401249117    0.4740510626    0.5789394131         -0.0545
C359       C    0.5869606590    0.4743080658    0.5894618778         -0.0545
C360       C    0.7754121203    0.4306683362    0.5718305190         -0.0545
C361       C    0.5916888107    0.3889821806    0.6276733754         -0.0545
C362       C    0.6448518862    0.3887222622    0.6171446765         -0.0545
C363       C    0.7222405527    0.4309840361    0.5822962801         -0.0545
C364       C    0.5627442558    0.4317811958    0.6138367663         -0.0545
H365       H    0.6580324333    0.5055378323    0.5608927099         -0.0545
H366       H    0.5655151160    0.5059806541    0.5792081345         -0.0545
H367       H    0.5737646417    0.3575026613    0.6457044657         -0.0545
H368       H    0.6662938979    0.3570409280    0.6273797172         -0.0545
C345       C    0.1691926502    0.4379021426    0.5935226394         -0.0545
C346       C    0.1440064604    0.4841713969    0.5836824730         -0.0545
C347       C    0.0910462027    0.4834881168    0.5743064191         -0.0545
C348       C    0.2750989900    0.4391691580    0.6123339303         -0.0545
C349       C    0.0884599946    0.3902725607    0.5846031016         -0.0545
C350       C    0.1414216110    0.3909550834    0.5939723105         -0.0545
C351       C    0.2221475878    0.4385597357    0.6029222332         -0.0545
C352       C    0.0632710871    0.4365433296    0.5747766253         -0.0545
H353       H    0.1645503634    0.5189300503    0.5833268075         -0.0545
H354       H    0.0723869411    0.5177355256    0.5670127410         -0.0545
H355       H    0.0679056844    0.3555264377    0.5849411111         -0.0545
H356       H    0.1600849488    0.3567054027    0.6012454535         -0.0545
C333       C    0.6700300606    0.5254754970    0.0813835534         -0.0545
C334       C    0.6514109751    0.5061280840    0.1286978031         -0.0545
C335       C    0.5987107371    0.4949984991    0.1358868465         -0.0545
C336       C    0.7754184161    0.5477193620    0.0668916032         -0.0545
C337       C    0.5832489437    0.5225682606    0.0484561839         -0.0545
C338       C    0.6359481797    0.5337044082    0.0412693953         -0.0545
C339       C    0.7227282021    0.5365935629    0.0741615909         -0.0545
C340       C    0.5646318622    0.5032077222    0.0957659240         -0.0545
H341       H    0.6766212546    0.5000484437    0.1584087466         -0.0545
H342       H    0.5849101574    0.4806803995    0.1709134266         -0.0545
H343       H    0.5580255655    0.5286539811    0.0187649231         -0.0545
H344       H    0.6497457534    0.5480421958    0.0062495797         -0.0545
C321       C    0.1700439783    0.5245372931    0.0804479154         -0.0545
C322       C    0.1891144604    0.4747837042    0.0728924570         -0.0545
C323       C    0.2420282124    0.4660899010    0.0765540610         -0.0545
C324       C    0.0642288155    0.5420173575    0.0731937819         -0.0545
C325       C    0.2568006365    0.5568978257    0.0953183312         -0.0545
C326       C    0.2038877453    0.5655929674    0.0916498910         -0.0545
C327       C    0.1171325417    0.5332542347    0.0768124788         -0.0545
C328       C    0.2758693972    0.5071415598    0.0877765449         -0.0545
H329       H    0.1640801905    0.4443848480    0.0645809843         -0.0545
H330       H    0.2561628456    0.4292608147    0.0709559243         -0.0545
H331       H    0.2818478822    0.5872832875    0.1036142023         -0.0545
H332       H    0.1897556943    0.6024260692    0.0972275195         -0.0545
C309       C    0.8909172752    0.4983289058    0.7835300112         -0.0545
C310       C    0.8819153564    0.4517856577    0.8100761194         -0.0545
C311       C    0.8769932876    0.4517746428    0.8638118017         -0.0545
C312       C    0.9007275640    0.4984615968    0.6760577692         -0.0545
C313       C    0.8900810009    0.5448422893    0.8644555839         -0.0545
C314       C    0.8950099844    0.5448524463    0.8107203849         -0.0545
C315       C    0.8958224809    0.4983704025    0.7297935472         -0.0545
C316       C    0.8810652525    0.4983007569    0.8910007255         -0.0545
H317       H    0.8789018676    0.4173358706    0.7899675345         -0.0545
H318       H    0.8703353449    0.4173225746    0.8834797759         -0.0545
H319       H    0.8931050679    0.5792761606    0.8845787547         -0.0545
H320       H    0.9016886713    0.5793019411    0.7910538605         -0.0545
C297       C    0.8914294291    0.4890895662    0.2834109660         -0.0545
C298       C    0.8967035620    0.5363141278    0.3091647227         -0.0545
C299       C    0.9006584743    0.5371318243    0.3627809888         -0.0545
C300       C    0.8835611518    0.4873462982    0.1761780072         -0.0545
C301       C    0.8940586298    0.4435077888    0.3648901186         -0.0545
C302       C    0.8900967407    0.4426904665    0.3112745063         -0.0545
C303       C    0.8874935032    0.4882426789    0.2297938452         -0.0545
C304       C    0.8993467165    0.4907316019    0.3906425679         -0.0545
H305       H    0.8976728700    0.5706707898    0.2885581218         -0.0545
H306       H    0.9045567301    0.5720879875    0.3818625965         -0.0545
H307       H    0.8930773827    0.4091663660    0.3855113924         -0.0545
H308       H    0.8861775543    0.4077354259    0.2921948598         -0.0545
C285       C    0.9845064579    0.7148439039    0.5086518933         -0.0545
C286       C    0.0227401962    0.6855169512    0.4843711498         -0.0545
C287       C    0.0181825072    0.6315025777    0.4837678731         -0.0545
C288       C    0.9935063950    0.8228783069    0.5098703611         -0.0545
C289       C    0.9371668806    0.6361415626    0.5317284888         -0.0545
C290       C    0.9417280247    0.6901556175    0.5323377654         -0.0545
C291       C    0.9890294469    0.7688601467    0.5092515474         -0.0545
C292       C    0.9753937087    0.6068152472    0.5074357457         -0.0545
H293       H    0.0544221849    0.7037732491    0.4668496066         -0.0545
H294       H    0.0464849525    0.6097762995    0.4658011204         -0.0545
H295       H    0.9055029981    0.6178701312    0.5492545630         -0.0545
H296       H    0.9134359446    0.7118809398    0.5503225176         -0.0545
C273       C    0.9744270208    0.2147001467    0.4991141593         -0.0545
C274       C    0.9563449269    0.2398066907    0.4554906382         -0.0545
C275       C    0.9509241253    0.2935602122    0.4556217263         -0.0545
C276       C    0.9853491082    0.1072044286    0.4989330718         -0.0545
C277       C    0.9816586334    0.2970994669    0.5429957588         -0.0545
C278       C    0.9870728489    0.2433451508    0.5428671236         -0.0545
C279       C    0.9798767491    0.1609505458    0.4990019149         -0.0545
C280       C    0.9635897116    0.3222076002    0.4993673320         -0.0545
H281       H    0.9469612372    0.2186175585    0.4231014032         -0.0545
H282       H    0.9375313842    0.3121613518    0.4233341931         -0.0545
H283       H    0.9910230770    0.3183001917    0.5753766050         -0.0545
H284       H    0.0004458319    0.2247416271    0.5751620154         -0.0545
C261       C    0.7622048253    0.9184571284    0.4734466146         -0.0545
C262       C    0.7963794443    0.9255367970    0.5138873971         -0.0545
C263       C    0.8493780092    0.9311414060    0.5034675469         -0.0545
C264       C    0.6561873419    0.9072872133    0.4941797695         -0.0545
C265       C    0.8340290626    0.9225803439    0.4121735042         -0.0545
C266       C    0.7810311907    0.9169687714    0.4225938597         -0.0545
C267       C    0.7092000475    0.9128708922    0.4838374799         -0.0545
C268       C    0.8682022957    0.9296739394    0.4526132760         -0.0545
H269       H    0.7824640870    0.9266220992    0.5515372997         -0.0545
H270       H    0.8746925508    0.9363766848    0.5333987137         -0.0545
H271       H    0.8479616767    0.9214838496    0.3745358791         -0.0545
H272       H    0.7557187279    0.9117126021    0.3926642090         -0.0545
C249       C    0.2622078153    0.9178843497    0.4727548486         -0.0545
C250       C    0.2780678635    0.8832781852    0.5104654168         -0.0545
C251       C    0.3306539513    0.8777873451    0.5197596750         -0.0545
C252       C    0.1570585604    0.9289732535    0.4541257715         -0.0545
C253       C    0.3515185888    0.9414989612    0.4536329490         -0.0545
C254       C    0.2989328276    0.9469846926    0.4443339062         -0.0545
C255       C    0.2096274696    0.9234095725    0.4634551968         -0.0545
C256       C    0.3673779840    0.9069030141    0.4913530865         -0.0545
H257       H    0.2508986304    0.8617150966    0.5314999448         -0.0545
H258       H    0.3424115837    0.8521649787    0.5476713000         -0.0545
H259       H    0.3786987162    0.9630407105    0.4326013105         -0.0545
H260       H    0.2871761747    0.9725917330    0.4164079273         -0.0545
C237       C    0.9490282506    0.7632553749    0.9869225605         -0.0545
C238       C    0.9791177854    0.7843605231    0.9464665598         -0.0545
C239       C    0.9839014629    0.8380902990    0.9408561194         -0.0545
C240       C    0.9394380742    0.6558107638    0.9982563837         -0.0545
C241       C    0.9285045968    0.8496087665    0.0161479824         -0.0545
C242       C    0.9237153028    0.7958789612    0.0217543569         -0.0545
C243       C    0.9442448527    0.7095296166    0.9925677268         -0.0545
C244       C    0.9586053646    0.8707139737    0.9757001135         -0.0545
H245       H    0.9978468782    0.7602276160    0.9206625381         -0.0545
H246       H    0.0061696630    0.8537303721    0.9109047205         -0.0545
H247       H    0.9097739413    0.8737535736    0.0419309537         -0.0545
H248       H    0.9014302532    0.7802387997    0.0516935584         -0.0545
C225       C    0.9592856996    0.2633288673    0.9882793927         -0.0545
C226       C    0.9230812075    0.2830838168    0.0234206741         -0.0545
C227       C    0.9182115350    0.3366159535    0.0289363908         -0.0545
C228       C    0.9690671612    0.1562821352    0.9771404307         -0.0545
C229       C    0.9857506044    0.3506370218    0.9641793718         -0.0545
C230       C    0.9906250872    0.2971048852    0.9586686394         -0.0545
C231       C    0.9641611516    0.2098014082    0.9827293527         -0.0545
C232       C    0.9495364918    0.3703919711    0.9993106844         -0.0545
H233       H    0.8998877111    0.2580976124    0.0453613557         -0.0545
H234       H    0.8914162219    0.3512565756    0.0549547336         -0.0545
H235       H    0.0089421766    0.3756347531    0.9422599467         -0.0545
H236       H    0.0174348310    0.2824642634    0.9326652498         -0.0545
C213       C    0.7642603538    0.0135988307    0.0238657829         -0.0545
C214       C    0.7306191323    0.0454492777    0.0515541319         -0.0545
C215       C    0.6773194020    0.0405810974    0.0449618789         -0.0545
C216       C    0.8708709004    0.0232246492    0.0370164972         -0.0545
C217       C    0.6913015943    0.9720219284    0.9829924290         -0.0545
C218       C    0.7446017346    0.9768948637    0.9895795230         -0.0545
C219       C    0.8175625757    0.0184321443    0.0304548717         -0.0545
C220       C    0.6576595528    0.0038628656    0.0106910961         -0.0545
H221       H    0.7451536115    0.0726369803    0.0769237915         -0.0545
H222       H    0.6524006817    0.0641598406    0.0654493479         -0.0545
H223       H    0.6767521962    0.9448529526    0.9576202204         -0.0545
H224       H    0.7695216850    0.9533303853    0.9690765768         -0.0545
C201       C    0.2641240601    0.0129839272    0.0102572659         -0.0545
C202       C    0.2847897042    0.9759690005    0.9768575244         -0.0545
C203       C    0.3382477278    0.9697187330    0.9732226001         -0.0745
C204       C    0.1572205829    0.0255269458    0.0176339030         -0.0545
C205       C    0.3503738415    0.0374980412    0.0363773051         -0.0545
C206       C    0.2969162234    0.0437530985    0.0400071023         -0.0545
C207       C    0.2106689289    0.0192400952    0.0139264779         -0.0545
C208       C    0.3710386746    0.0004735349    0.0029878179         -0.0545
H209       H    0.2605330553    0.9531970711    0.9548142633         -0.0545
H210       H    0.3535628245    0.9423230521    0.9484938326         -0.0545
H211       H    0.3746430983    0.0602676164    0.0583997487         -0.0545
H212       H    0.2816023433    0.0711631489    0.0647204883         -0.0545
C189       C    0.0433744948    0.9858368689    0.7351944992         -0.0545
C190       C    0.0158398592    0.9446507667    0.7584052033         -0.0545
C191       C    0.0113339848    0.9416394840    0.8120945058         -0.0545
C192       C    0.0524018607    0.9919746429    0.6278247130         -0.0545
C193       C    0.0618994717    0.0209907382    0.8193618986         -0.0545
C194       C    0.0664112169    0.0239982959    0.7656727580         -0.0545
C195       C    0.0478778802    0.9888830958    0.6815073648         -0.0545
C196       C    0.0343530944    0.9798120863    0.8425722788         -0.0545
H197       H    0.9987969668    0.9163834163    0.7358612688         -0.0545
H198       H    0.9909572634    0.9111488829    0.8292932843         -0.0545
H199       H    0.0789452434    0.0492377640    0.8419187540         -0.0545
H200       H    0.0868055509    0.0544777216    0.7484744653         -0.0545
C177       C    0.0419373524    0.9801938954    0.2349876354         -0.0545
C178       C    0.0527168691    0.9380376966    0.2665765154         -0.0545
C179       C    0.0571234467    0.9449952798    0.3197046271         -0.0545
C180       C    0.0330569711    0.9663722171    0.1287279798         -0.0545
C181       C    0.0399791370    0.0362597422    0.3096547423         -0.0545
C182       C    0.0355794298    0.0293034979    0.2565257581         -0.0545
C183       C    0.0375050614    0.9732597250    0.1818595973         -0.0545
C184       C    0.0507449127    0.9941008657    0.3412453674         -0.0545
H185       H    0.0574451559    0.9016820710    0.2506490551         -0.0545
H186       H    0.0651107793    0.9137950430    0.3431036883         -0.0545
H187       H    0.0352683330    0.0726058999    0.3255955527         -0.0545
H188       H    0.0276127086    0.0605077512    0.2331240792         -0.0545
loop_
_geom_bond_atom_site_label_1
_geom_bond_atom_site_label_2
_geom_bond_distance
_geom_bond_site_symmetry_2
_ccdc_geom_bond_type
O1         Al16 1.762       .   S
O1           C7 1.272       .   A
O2         Al17 1.762       .   S
O2           C8 1.272       .   A
O3         Al18 1.762       .   S
O3           C9 1.272       .   A
O4         Al18 1.762       .   S
O4           C7 1.272       .   A
O5         Al17 1.762       .   S
O5           C9 1.272       .   A
O6         Al16 1.762       .   S
O6           C8 1.272       .   A
C7         C228 1.694       .   S
C8         C196 1.694       .   S
C9         C204 1.715       .   S
O10        Al16 1.762       .   S
O10         C20 1.272       .   A
O11        Al17 1.762       .   S
O11         C21 1.272       .   A
O12        Al18 1.762       .   S
O12         C22 1.272       .   A
O13        Al18 1.762       .   S
O13         C20 1.272       .   A
O14        Al17 1.762       .   S
O14         C22 1.272       .   A
O15        Al16 1.762       .   S
O15         C21 1.272       .   A
Al16        O19 1.735       .   S
Al17        O19 1.735       .   S
Al18        O19 1.735       .   S
C20        C216 1.037       .   S
C21        C244 0.999       .   S
C22        C180 1.061       .   S
O23        Al38 1.762       .   S
O23         C29 1.272       .   A
O24        Al39 1.762       .   S
O24         C30 1.272       .   A
O25        Al40 1.762       .   S
O25         C31 1.272       .   A
O26        Al40 1.762       .   S
O26         C29 1.272       .   A
O27        Al39 1.762       .   S
O27         C31 1.272       .   A
O28        Al38 1.762       .   S
O28         C30 1.272       .   A
C29        C184 1.061   1_565   S
C30        C276 1.311       .   S
C31        C268 1.798       .   S
O32        Al38 1.762       .   S
O32         C42 1.272       .   A
O33        Al39 1.762       .   S
O33         C43 1.272       .   A
O34        Al40 1.762       .   S
O34         C44 1.272       .   A
O35        Al40 1.762       .   S
O35         C42 1.272       .   A
O36        Al39 1.762       .   S
O36         C44 1.272       .   A
O37        Al38 1.762       .   S
O37         C43 1.272       .   A
Al38        O41 1.735       .   S
Al39        O41 1.735       .   S
Al40        O41 1.735       .   S
C42        C252 1.051       .   S
C43        C192 1.694   1_566   S
C44        C288 1.345       .   S
O45        Al60 1.762       .   S
O45         C51 1.272       .   A
O46        Al61 1.762       .   S
O46         C52 1.272       .   A
O47        Al62 1.762       .   S
O47         C53 1.272       .   A
O48        Al62 1.762       .   S
O48         C51 1.272       .   A
O49        Al61 1.762       .   S
O49         C53 1.272       .   A
O50        Al60 1.762       .   S
O50         C52 1.272       .   A
C51        C316 1.355       .   S
C52        C240 0.999   1_665   S
C53        C336 1.088       .   S
O54        Al60 1.762       .   S
O54         C64 1.272       .   A
O55        Al61 1.762       .   S
O55         C65 1.272       .   A
O56        Al62 1.762       .   S
O56         C66 1.272       .   A
O57        Al62 1.762       .   S
O57         C64 1.272       .   A
O58        Al61 1.762       .   S
O58         C66 1.272       .   A
O59        Al60 1.762       .   S
O59         C65 1.272       .   A
Al60        O63 1.735       .   S
Al61        O63 1.735       .   S
Al62        O63 1.735       .   S
C64        C232 1.694   1_655   S
C65        C324 1.760       .   S
C66        C300 1.358       .   S
O67        Al82 1.762       .   S
O67         C73 1.272       .   A
O68        Al83 1.762       .   S
O68         C74 1.272       .   A
O69        Al84 1.762       .   S
O69         C75 1.272       .   A
O70        Al84 1.762       .   S
O70         C73 1.272       .   A
O71        Al83 1.762       .   S
O71         C75 1.272       .   A
O72        Al82 1.762       .   S
O72         C74 1.272       .   A
C73        C292 1.345   1_655   S
C74        C352 1.038       .   S
C75        C312 1.355   1_556   S
O76        Al82 1.762       .   S
O76         C86 1.272       .   A
O77        Al83 1.762       .   S
O77         C87 1.272       .   A
O78        Al84 1.762       .   S
O78         C88 1.272       .   A
O79        Al84 1.762       .   S
O79         C86 1.272       .   A
O80        Al83 1.762       .   S
O80         C88 1.272       .   A
O81        Al82 1.762       .   S
O81         C87 1.272       .   A
Al82        O85 1.735       .   S
Al83        O85 1.735       .   S
Al84        O85 1.735       .   S
C86        C304 1.358       .   S
C87        C280 1.311   1_645   S
C88        C360 1.768       .   S
O89       Al104 1.762       .   S
O89         C95 1.272       .   A
O90       Al105 1.762       .   S
O90         C96 1.272       .   A
O91       Al106 1.762       .   S
O91         C97 1.272       .   A
O92       Al106 1.762       .   S
O92         C95 1.272       .   A
O93       Al105 1.762       .   S
O93         C97 1.272       .   A
O94       Al104 1.762       .   S
O94         C96 1.272       .   A
C95        C372 1.404       .   S
C96        C396 1.324       .   S
C97        C220 1.037   1_665   S
O98       Al104 1.762       .   S
O98        C108 1.272       .   A
O99       Al105 1.762       .   S
O99        C109 1.272       .   A
O100      Al106 1.762       .   S
O100       C110 1.272       .   A
O101      Al106 1.762       .   S
O101       C108 1.272       .   A
O102      Al105 1.762       .   S
O102       C110 1.272       .   A
O103      Al104 1.762       .   S
O103       C109 1.272       .   A
Al104      O107 1.735       .   S
Al105      O107 1.735       .   S
Al106      O107 1.735       .   S
C108       C412 1.372       .   S
C109       C208 1.715   1_565   S
C110       C388 1.352       .   S
O111      Al126 1.762       .   S
O111       C117 1.272       .   A
O112      Al127 1.762       .   S
O112       C118 1.272       .   A
O113      Al128 1.762       .   S
O113       C119 1.272       .   A
O114      Al128 1.762       .   S
O114       C117 1.272       .   A
O115      Al127 1.762       .   S
O115       C119 1.272       .   A
O116      Al126 1.762       .   S
O116       C118 1.272       .   A
C117       C432 1.689       .   S
C118       C384 1.352   1_556   S
C119       C264 1.798   1_655   S
O120      Al126 1.762       .   S
O120       C130 1.272       .   A
O121      Al127 1.762       .   S
O121       C131 1.272       .   A
O122      Al128 1.762       .   S
O122       C132 1.272       .   A
O123      Al128 1.762       .   S
O123       C130 1.272       .   A
O124      Al127 1.762       .   S
O124       C132 1.272       .   A
O125      Al126 1.762       .   S
O125       C131 1.272       .   A
Al126      O129 1.735       .   S
Al127      O129 1.735       .   S
Al128      O129 1.735       .   S
C130       C256 1.051       .   S
C131       C420 0.962       .   S
C132       C376 1.404       .   S
O133      Al148 1.762       .   S
O133       C139 1.272       .   A
O134      Al149 1.762       .   S
O134       C140 1.272       .   A
O135      Al150 1.762       .   S
O135       C141 1.272       .   A
O136      Al150 1.762       .   S
O136       C139 1.272       .   A
O137      Al149 1.762       .   S
O137       C141 1.272       .   A
O138      Al148 1.762       .   S
O138       C140 1.272       .   A
C139       C328 1.760   1_455   S
C140       C460 1.093       .   S
C141       C408 1.372       .   S
O142      Al148 1.762       .   S
O142       C152 1.272       .   A
O143      Al149 1.762       .   S
O143       C153 1.272       .   A
O144      Al150 1.762       .   S
O144       C154 1.272       .   A
O145      Al150 1.762       .   S
O145       C152 1.272       .   A
O146      Al149 1.762       .   S
O146       C154 1.272       .   A
O147      Al148 1.762       .   S
O147       C153 1.272       .   A
Al148      O151 1.735       .   S
Al149      O151 1.735       .   S
Al150      O151 1.735       .   S
C152       C448 1.775       .   S
C153       C400 1.324   1_545   S
C154       C340 1.088       .   S
O155      Al170 1.762       .   S
O155       C161 1.272       .   A
O156      Al171 1.762       .   S
O156       C162 1.272       .   A
O157      Al172 1.762       .   S
O157       C163 1.272       .   A
O158      Al172 1.762       .   S
O158       C161 1.272       .   A
O159      Al171 1.762       .   S
O159       C163 1.272       .   A
O160      Al170 1.762       .   S
O160       C162 1.272       .   A
C161       C444 1.775       .   S
C162       C436 1.689       .   S
C163       C348 1.038   1_455   S
O164      Al170 1.762       .   S
O164       C174 1.272       .   A
O165      Al171 1.762       .   S
O165       C175 1.272       .   A
O166      Al172 1.762       .   S
O166       C176 1.272       .   A
O167      Al172 1.762       .   S
O167       C174 1.272       .   A
O168      Al171 1.762       .   S
O168       C176 1.272       .   A
O169      Al170 1.762       .   S
O169       C175 1.272       .   A
Al170      O173 1.735       .   S
Al171      O173 1.735       .   S
Al172      O173 1.735       .   S
C174       C424 0.962   1_545   S
C175       C364 1.768       .   S
C176       C456 1.093   1_556   S
C453       C454 1.540       .   A
C453       C458 1.540       .   A
C453       C459 1.540       .   S
C454       C455 1.540       .   A
C454       H461 1.140       .   S
C455       C460 1.540       .   A
C455       H462 1.140       .   S
C459       C456 1.540       .   T
C460       C457 1.540       .   A
C457       C458 1.540       .   A
C457       H463 1.140       .   S
C458       H464 1.140       .   S
C441       C442 1.540       .   A
C441       C446 1.540       .   A
C441       C447 1.540       .   S
C442       C443 1.540       .   A
C442       H449 1.140       .   S
C443       C448 1.540       .   A
C443       H450 1.140       .   S
C447       C444 1.540       .   T
C448       C445 1.540       .   A
C445       C446 1.540       .   A
C445       H451 1.140       .   S
C446       H452 1.140       .   S
C429       C430 1.540       .   A
C429       C434 1.540       .   A
C429       C435 1.540       .   S
C430       C431 1.540       .   A
C430       H437 1.140       .   S
C431       C436 1.540       .   A
C431       H438 1.140       .   S
C435       C432 1.540       .   T
C436       C433 1.540       .   A
C433       C434 1.540       .   A
C433       H439 1.140       .   S
C434       H440 1.140       .   S
C417       C418 1.540       .   A
C417       C422 1.540       .   A
C417       C423 1.540       .   S
C418       C419 1.540       .   A
C418       H425 1.140       .   S
C419       C424 1.540       .   A
C419       H426 1.140       .   S
C423       C420 1.540       .   T
C424       C421 1.540       .   A
C421       C422 1.540       .   A
C421       H427 1.140       .   S
C422       H428 1.140       .   S
C405       C406 1.540       .   A
C405       C410 1.540       .   A
C405       C411 1.540       .   S
C406       C407 1.540       .   A
C406       H413 1.140       .   S
C407       C412 1.540       .   A
C407       H414 1.140       .   S
C411       C408 1.540       .   T
C412       C409 1.540       .   A
C409       C410 1.540       .   A
C409       H415 1.140       .   S
C410       H416 1.140       .   S
C393       C394 1.540       .   A
C393       C398 1.540       .   A
C393       C399 1.540       .   S
C394       C395 1.540       .   A
C394       H401 1.140       .   S
C395       C400 1.540       .   A
C395       H402 1.140       .   S
C399       C396 1.540       .   T
C400       C397 1.540       .   A
C397       C398 1.540       .   A
C397       H403 1.140       .   S
C398       H404 1.140       .   S
C381       C382 1.540       .   A
C381       C386 1.540       .   A
C381       C387 1.540       .   S
C382       C383 1.540       .   A
C382       H389 1.140       .   S
C383       C388 1.540       .   A
C383       H390 1.140       .   S
C387       C384 1.540       .   T
C388       C385 1.540       .   A
C385       C386 1.540       .   A
C385       H391 1.140       .   S
C386       H392 1.140       .   S
C369       C370 1.540       .   A
C369       C374 1.540       .   A
C369       C375 1.540       .   S
C370       C371 1.540       .   A
C370       H377 1.140       .   S
C371       C376 1.540       .   A
C371       H378 1.140       .   S
C375       C372 1.540       .   T
C376       C373 1.540       .   A
C373       C374 1.540       .   A
C373       H379 1.140       .   S
C374       H380 1.140       .   S
C357       C358 1.540       .   A
C357       C362 1.540       .   A
C357       C363 1.540       .   S
C358       C359 1.540       .   A
C358       H365 1.140       .   S
C359       C364 1.540       .   A
C359       H366 1.140       .   S
C363       C360 1.540       .   T
C364       C361 1.540       .   A
C361       C362 1.540       .   A
C361       H367 1.140       .   S
C362       H368 1.140       .   S
C345       C346 1.540       .   A
C345       C350 1.540       .   A
C345       C351 1.540       .   S
C346       C347 1.540       .   A
C346       H353 1.140       .   S
C347       C352 1.540       .   A
C347       H354 1.140       .   S
C351       C348 1.540       .   T
C352       C349 1.540       .   A
C349       C350 1.540       .   A
C349       H355 1.140       .   S
C350       H356 1.140       .   S
C333       C334 1.540       .   A
C333       C338 1.540       .   A
C333       C339 1.540       .   S
C334       C335 1.540       .   A
C334       H341 1.140       .   S
C335       C340 1.540       .   A
C335       H342 1.140       .   S
C339       C336 1.540       .   T
C340       C337 1.540       .   A
C337       C338 1.540       .   A
C337       H343 1.140       .   S
C338       H344 1.140       .   S
C321       C322 1.540       .   A
C321       C326 1.540       .   A
C321       C327 1.540       .   S
C322       C323 1.540       .   A
C322       H329 1.140       .   S
C323       C328 1.540       .   A
C323       H330 1.140       .   S
C327       C324 1.540       .   T
C328       C325 1.540       .   A
C325       C326 1.540       .   A
C325       H331 1.140       .   S
C326       H332 1.140       .   S
C309       C310 1.540       .   A
C309       C314 1.540       .   A
C309       C315 1.540       .   S
C310       C311 1.540       .   A
C310       H317 1.140       .   S
C311       C316 1.540       .   A
C311       H318 1.140       .   S
C315       C312 1.540       .   T
C316       C313 1.540       .   A
C313       C314 1.540       .   A
C313       H319 1.140       .   S
C314       H320 1.140       .   S
C297       C298 1.540       .   A
C297       C302 1.540       .   A
C297       C303 1.540       .   S
C298       C299 1.540       .   A
C298       H305 1.140       .   S
C299       C304 1.540       .   A
C299       H306 1.140       .   S
C303       C300 1.540       .   T
C304       C301 1.540       .   A
C301       C302 1.540       .   A
C301       H307 1.140       .   S
C302       H308 1.140       .   S
C285       C286 1.540       .   A
C285       C290 1.540       .   A
C285       C291 1.540       .   S
C286       C287 1.540       .   A
C286       H293 1.140       .   S
C287       C292 1.540       .   A
C287       H294 1.140       .   S
C291       C288 1.540       .   T
C292       C289 1.540       .   A
C289       C290 1.540       .   A
C289       H295 1.140       .   S
C290       H296 1.140       .   S
C273       C274 1.540       .   A
C273       C278 1.540       .   A
C273       C279 1.540       .   S
C274       C275 1.540       .   A
C274       H281 1.140       .   S
C275       C280 1.540       .   A
C275       H282 1.140       .   S
C279       C276 1.540       .   T
C280       C277 1.540       .   A
C277       C278 1.540       .   A
C277       H283 1.140       .   S
C278       H284 1.140       .   S
C261       C262 1.540       .   A
C261       C266 1.540       .   A
C261       C267 1.540       .   S
C262       C263 1.540       .   A
C262       H269 1.140       .   S
C263       C268 1.540       .   A
C263       H270 1.140       .   S
C267       C264 1.540       .   T
C268       C265 1.540       .   A
C265       C266 1.540       .   A
C265       H271 1.140       .   S
C266       H272 1.140       .   S
C249       C250 1.540       .   A
C249       C254 1.540       .   A
C249       C255 1.540       .   S
C250       C251 1.540       .   A
C250       H257 1.140       .   S
C251       C256 1.540       .   A
C251       H258 1.140       .   S
C255       C252 1.540       .   T
C256       C253 1.540       .   A
C253       C254 1.540       .   A
C253       H259 1.140       .   S
C254       H260 1.140       .   S
C237       C238 1.540       .   A
C237       C242 1.540       .   A
C237       C243 1.540       .   S
C238       C239 1.540       .   A
C238       H245 1.140       .   S
C239       C244 1.540       .   A
C239       H246 1.140       .   S
C243       C240 1.540       .   T
C244       C241 1.540       .   A
C241       C242 1.540       .   A
C241       H247 1.140       .   S
C242       H248 1.140       .   S
C225       C226 1.540       .   A
C225       C230 1.540       .   A
C225       C231 1.540       .   S
C226       C227 1.540       .   A
C226       H233 1.140       .   S
C227       C232 1.540       .   A
C227       H234 1.140       .   S
C231       C228 1.540       .   T
C232       C229 1.540       .   A
C229       C230 1.540       .   A
C229       H235 1.140       .   S
C230       H236 1.140       .   S
C213       C214 1.540       .   A
C213       C218 1.540       .   A
C213       C219 1.540       .   S
C214       C215 1.540       .   A
C214       H221 1.140       .   S
C215       C220 1.540       .   A
C215       H222 1.140       .   S
C219       C216 1.540       .   T
C220       C217 1.540       .   A
C217       C218 1.540       .   A
C217       H223 1.140       .   S
C218       H224 1.140       .   S
C201       C202 1.540       .   A
C201       C206 1.540       .   A
C201       C207 1.540       .   S
C202       C203 1.540       .   A
C202       H209 1.140       .   S
C203       C208 1.540       .   A
C203       H210 1.140       .   S
C207       C204 1.540       .   T
C208       C205 1.540       .   A
C205       C206 1.540       .   A
C205       H211 1.140       .   S
C206       H212 1.140       .   S
C189       C190 1.540       .   A
C189       C194 1.540       .   A
C189       C195 1.540       .   S
C190       C191 1.540       .   A
C190       H197 1.140       .   S
C191       C196 1.540       .   A
C191       H198 1.140       .   S
C195       C192 1.540       .   T
C196       C193 1.540       .   A
C193       C194 1.540       .   A
C193       H199 1.140       .   S
C194       H200 1.140       .   S
C177       C178 1.540       .   A
C177       C182 1.540       .   A
C177       C183 1.540       .   S
C178       C179 1.540       .   A
C178       H185 1.140       .   S
C179       C184 1.540       .   A
C179       H186 1.140       .   S
C183       C180 1.540       .   T
C184       C181 1.540       .   A
C181       C182 1.540       .   A
C181       H187 1.140       .   S
C182       H188 1.140       .   S
loop_
_modify_baseline_atom_site_label
_modified_remove_atom_site_label
C177	H188
C182	H200
C181	H212
C189	H224
C194	H236
C193	H248
C201	H260
C206	H272
C205	H284
C213	H296
C218	H308
C217	H320
C225	H332
C230	H344
C229	H356
C237	H368
C242	H380
C241	H392
C249	H404
C254	H416
C253	H428
C261	H440
C266	H452
C265	H464
C273
C278
C277
C285
C290
C289
C297
C302
C301
C309
C314
C313
C321
C326
C325
C333
C338
C337
C345
C350
C349
C357
C362
C361
C369
C374
C373
C381
C386
C385
C393
C398
C397
C405
C410
C409
C417
C422
C421
C429
C434
C433
C441
C446
C445
C453
C458
C457
